*Heading
** Job name: templateCEPupper Model name: L4-L5_shell
** Generated by: Abaqus/CAE 2020
*Preprint, echo=NO, model=NO, history=NO, contact=NO
**
** PARTS
**
*Part, name=L4-L5-1
*Node
    433,      20.0716,  -2.21768951,   5.59903383
    435,   19.9744701,  -3.55965042,   5.63312578
    437,   19.8773403,  -4.90160942,   5.66721821
    439,   20.5303097,  -2.26132965,   5.68503284
    441,   20.4106293,   -3.6504097,   5.71391916
    443,   20.2909603,  -5.03950119,     5.742805
    451,   20.9890099,  -2.30496025,   5.77103233
    453,   20.8467999,  -3.74118042,   5.79471207
    455,   20.7045898,  -5.17739105,   5.81839228
    463,   21.4477196,  -2.34860039,   5.85703135
    465,   21.2829704,   -3.8319397,   5.87550497
    467,   21.1182098,  -5.31528091,   5.89397812
    471,   19.2575207,   -6.1119709,   5.68281603
    473,   18.6377106,  -7.32233047,    5.6984129
    477,   19.6454105,  -6.29146004,    5.7560811
    479,   18.9998493,  -7.54343033,    5.7693572
    489,   20.0332909,  -6.47096062,    5.8293457
    491,     19.36199,  -7.76453018,   5.84030104
    501,   20.4211693,   -6.6504612,   5.90261173
    503,   19.7241306,  -7.98563004,   5.91124535
** ... 14081 like lines cut
*Element, type=C3D20P
14209,  80257,  80263,  80265,  80259,  80258,  80264,  80266,  80260, 186240, 186239, 186238, 186237, 186241, 186242, 186243,
       186244, 186246, 186245, 186247, 186248
14210,  80259,  80265,  80267,  80261,  80260,  80266,  80268,  80262, 186238, 186251, 186250, 186249, 186243, 186252, 186253,
       186254, 186248, 186247, 186255, 186256
14211,  80263,  80269,  80271,  80265,  80264,  80270,  80272,  80266, 186259, 186258, 186257, 186239, 186260, 186261, 186262,
       186242, 186245, 186263, 186264, 186247
14212,  80265,  80271,  80273,  80267,  80266,  80272,  80274,  80268, 186257, 186266, 186265, 186251, 186262, 186267, 186268,
       186252, 186247, 186264, 186269, 186255
14213,  80269,   8567,   9105,  80271,  80270,   8567,   9105,  80272, 186271, 142625, 186270, 186258, 186272, 142625, 186273,
       186261, 186263,   8567,   9105, 186264
14214,  80271,   9105,   9107,  80273,  80272,   9105,   9107,  80274, 186270, 142628, 186274, 186266, 186273, 142628, 186275,
       186267, 186264,   9105,   9107, 186269
14215,  80258,  80264,  80266,  80260,   8537,   8543,   9081,   9075, 186241, 186242, 186243, 186244, 157330, 142613, 157424,
       153779, 186277, 186276, 186278, 186279
14216,  80260,  80266,  80268,  80262,   9075,   9081,   9083,   9077, 186243, 186252, 186253, 186254, 157424, 142616, 157426,
       153782, 186279, 186278, 186280, 186281
14217,  80264,  80270,  80272,  80266,   8543,   8555,   9093,   9081, 186260, 186261, 186262, 186242, 157334, 142619, 157428,
       142613, 186276, 186282, 186283, 186278
14218,  80266,  80272,  80274,  80268,   9081,   9093,   9095,   9083, 186262, 186267, 186268, 186252, 157428, 142622, 157430,
       142616, 186278, 186283, 186284, 186280
** ... 5164 like lines cut
*Elset, elset=CEP
 14209, 14210, 14211, 14212, 14213, 14214, 14215, 14216, 14217, 14218, 14219, 14220, 14221, 14222, 14223, 14224
 14225, 14226, 14227, 14228, 14229, 14230, 14231, 14232, 14233, 14234, 14235, 14236, 14237, 14238, 14239, 14240
 14241, 14242, 14243, 14244, 14245, 14246, 14247, 14248, 14249, 14250, 14251, 14252, 14253, 14254, 14255, 14256
 14257, 14258, 14259, 14260, 14261, 14262, 14263, 14264, 14265, 14266, 14267, 14268, 14269, 14270, 14271, 14272
 14273, 14274, 14275, 14276, 14277, 14278, 14279, 14280, 14281, 14282, 14283, 14284, 14285, 14286, 14287, 14288
 14289, 14290, 14291, 14292, 14293, 14294, 14295, 14296, 14297, 14298, 14299, 14300, 14301, 14302, 14303, 14304
 14305, 14306, 14307, 14308, 14309, 14310, 14311, 14312, 14313, 14314, 14315, 14316, 14317, 14318, 14319, 14320
 14321, 14322, 14323, 14324, 14325, 14326, 14327, 14328, 14329, 14330, 14331, 14332, 14333, 14334, 14335, 14336
 14337, 14338, 14339, 14340, 14341, 14342, 14343, 14344, 14345, 14346, 14347, 14348, 14349, 14350, 14351, 14352
 14353, 14354, 14355, 14356, 14357, 14358, 14359, 14360, 14361, 14362, 14363, 14364, 14365, 14366, 14367, 14368
 14369, 14370, 14371, 14372, 14373, 14374, 14375, 14376, 14377, 14378, 14379, 14380, 14381, 14382, 14383, 14384
 14385, 14386, 14387, 14388, 14389, 14390, 14391, 14392, 14393, 14394, 14395, 14396, 14397, 14398, 14399, 14400
 14401, 14402, 14403, 14404, 14405, 14406, 14407, 14408, 14409, 14410, 14411, 14412, 14413, 14414, 14415, 14416
 14417, 14418, 14419, 14420, 14421, 14422, 14423, 14424, 14425, 14426, 14427, 14428, 14429, 14430, 14431, 14432
 14433, 14434, 14435, 14436, 14437, 14438, 14439, 14440, 14441, 14442, 14443, 14444, 14445, 14446, 14447, 14448
 14449, 14450, 14451, 14452, 14453, 14454, 14455, 14456, 14457, 14458, 14459, 14460, 14461, 14462, 14463, 14464
 14465, 14466, 14467, 14468, 14469, 14470, 14471, 14472, 14473, 14474, 14475, 14476, 14477, 14478, 14479, 14480
 14481, 14482, 14483, 14484, 14485, 14486, 14487, 14488, 14489, 14490, 14491, 14492, 14493, 14494, 14495, 14496
 14497, 14498, 14499, 14500, 14501, 14502, 14503, 14504, 14505, 14506, 14507, 14508, 14509, 14510, 14511, 14512
 14513, 14514, 14515, 14516, 14517, 14518, 14519, 14520, 14521, 14522, 14523, 14524, 14525, 14526, 14527, 14528
** ... 142 like lines cut
*Nset, nset=ND-AF
    433,    435,    437,    439,    441,    443,    451,    453,    455,    463,    465,    467,    471,    473,    477,    479
    489,    491,    501,    503,   1009,   1011,   1013,   1015,   1017,   1019,   1027,   1029,   1031,   1039,   1041,   1043
   1047,   1053,   1065,   1077,   1585,   1587,   1589,   1591,   1593,   1595,   1603,   1605,   1607,   1615,   1617,   1619
   1623,   1629,   1641,   1653,   2161,   2163,   2165,   2167,   2169,   2171,   2179,   2181,   2183,   2191,   2193,   2195
   2199,   2205,   2217,   2229,   2737,   2739,   2741,   2743,   2745,   2747,   2755,   2757,   2759,   2767,   2769,   2771
   2775,   2781,   2793,   2805,   3313,   3315,   3317,   3319,   3321,   3323,   3331,   3333,   3335,   3343,   3345,   3347
   3351,   3357,   3369,   3381,   3964,   3966,   3970,   3972,   3982,   3984,   3994,   3996,   4000,   4002,   4006,   4008
   4018,   4020,   4030,   4032,   4540,   4542,   4546,   4548,   4558,   4560,   4570,   4572,   4576,   4578,   4582,   4584
   4594,   4596,   4606,   4608,   5116,   5118,   5122,   5124,   5134,   5136,   5146,   5148,   5152,   5154,   5158,   5160
   5170,   5172,   5182,   5184,   5692,   5694,   5698,   5700,   5710,   5712,   5722,   5724,   5728,   5730,   5734,   5736
   5746,   5748,   5758,   5760,   6268,   6270,   6274,   6276,   6286,   6288,   6298,   6300,   6304,   6306,   6310,   6312
   6322,   6324,   6334,   6336,   6844,   6846,   6850,   6852,   6862,   6864,   6874,   6876,   6880,   6882,   6886,   6888
   6898,   6900,   6910,   6912,   7347,   7349,   7353,   7355,   7365,   7367,   7377,   7379,   7383,   7385,   7389,   7391
   7401,   7403,   7413,   7415,   7923,   7925,   7929,   7931,   7941,   7943,   7953,   7955,   7959,   7961,   7965,   7967
   7977,   7979,   7989,   7991,   8499,   8501,   8505,   8507,   8517,   8519,   8529,   8531,   8535,   8537,   8541,   8543
   8553,   8555,   8565,   8567,   9075,   9077,   9081,   9083,   9093,   9095,   9105,   9107,   9111,   9113,   9117,   9119
   9129,   9131,   9141,   9143,   9724,   9726,   9730,   9732,   9742,   9744,   9754,   9756,   9760,   9762,   9766,   9768
   9778,   9780,   9790,   9792,  10300,  10302,  10306,  10308,  10318,  10320,  10330,  10332,  10336,  10338,  10342,  10344
  10354,  10356,  10366,  10368,  10876,  10878,  10882,  10884,  10894,  10896,  10906,  10908,  10912,  10914,  10918,  10920
  10930,  10932,  10942,  10944,  11452,  11454,  11458,  11460,  11470,  11472,  11482,  11484,  11488,  11494,  11506,  11518
** ... 65 like lines cut
*Nset, nset=ND-NP
  34562,  34564,  34566,  34588,  34590,  35282,  35284,  35286,  35308,  35666,  35668,  35670,  35692,  36050,  36052,  36054
  36076,  36434,  36436,  36438,  36460,  36818,  36820,  36822,  36844,  37155,  37157,  37179,  37181,  37539,  37541,  37563
  37565,  37923,  37925,  37947,  37949,  38307,  38309,  38331,  38333,  38691,  38693,  38715,  38717,  39075,  39077,  39099
  39101,  39459,  39461,  39483,  39485,  39843,  39845,  39867,  39869,  40227,  40229,  40251,  40253,  40611,  40613,  40635
  40637,  41044,  41046,  41068,  41070,  41428,  41430,  41452,  41454,  41812,  41814,  41836,  41838,  42196,  42198,  42220
  42241,  42243,  42245,  42247,  42249,  42251,  42259,  42261,  42263,  42271,  42273,  42275,  42283,  42285,  42287,  42303
  42305,  42309,  42311,  42321,  42323,  42333,  42335,  42345,  42347,  42969,  42971,  42981,  42983,  42993,  42995,  43005
  43007,  43017,  43019,  43029,  43031,  43041,  43043,  43053,  43055,  43065,  43067,  43077,  43079,  44161,  44163,  44165
  44167,  44169,  44171,  44179,  44181,  44183,  44191,  44193,  44195,  44203,  44205,  44207,  44223,  44225,  44229,  44231
  44241,  44243,  44253,  44255,  44265,  44267,  45001,  45003,  45005,  45007,  45009,  45011,  45019,  45021,  45023,  45031
  45033,  45035,  45043,  45045,  45047,  45063,  45069,  45081,  45093,  45105,  46082,  46084,  46086,  46088,  46090,  46092
  46100,  46102,  46104,  46112,  46114,  46116,  46124,  46126,  46128,  46144,  46146,  46150,  46152,  46162,  46164,  46174
  46176,  46186,  46188,  46804,  46806,  46810,  46812,  46822,  46824,  46834,  46836,  46846,  46848,  46864,  46866,  46870
  46872,  46882,  46884,  46894,  46896,  46906,  46908,  47768,  47770,  47772,  47780,  47782,  47784,  47792,  47794,  47796
  47804,  47806,  47808,  47816,  47818,  47820,  47830,  47832,  47842,  47844,  47854,  47856,  47866,  47868,  47878,  47880
  48244,  48246,  48250,  48252,  48262,  48264,  48274,  48276,  48286,  48288,  48304,  48306,  48310,  48312,  48322,  48324
  48334,  48336,  48346,  48348,  48967,  48969,  48971,  48979,  48981,  48983,  48991,  48993,  48995,  49003,  49005,  49007
  49015,  49017,  49019,  49029,  49031,  49041,  49043,  49053,  49055,  49065,  49067,  49077,  49079,  49090,  49092,  49102
  49104,  49114,  49116,  49126,  49128,  49138,  49140,  49150,  49152,  49162,  49164,  49174,  49176,  49186,  49188,  49198
  49200,  49210,  49212,  49222,  49224,  49234,  49236,  49246,  49248,  49258,  49260,  49270,  49272,  49282,  49284,  49294
** ... 154 like lines cut
*Nset, nset=ND-CEP
    433,    435,    437,    439,    441,    443,    451,    453,    455,    463,    465,    467,    471,    473,    477,    479
    489,    491,    501,    503,   1009,   1011,   1013,   1015,   1017,   1019,   1027,   1029,   1031,   1039,   1041,   1043
   1047,   1053,   1065,   1077,   1585,   1587,   1589,   1591,   1593,   1595,   1603,   1605,   1607,   1615,   1617,   1619
   1623,   1629,   1641,   1653,   2161,   2163,   2165,   2167,   2169,   2171,   2179,   2181,   2183,   2191,   2193,   2195
   2199,   2205,   2217,   2229,   2737,   2739,   2741,   2743,   2745,   2747,   2755,   2757,   2759,   2767,   2769,   2771
   2775,   2781,   2793,   2805,   3313,   3315,   3317,   3319,   3321,   3323,   3331,   3333,   3335,   3343,   3345,   3347
   3351,   3357,   3369,   3381,   3964,   3966,   3970,   3972,   3982,   3984,   3994,   3996,   4000,   4002,   4006,   4008
   4018,   4020,   4030,   4032,   4540,   4542,   4546,   4548,   4558,   4560,   4570,   4572,   4576,   4578,   4582,   4584
   4594,   4596,   4606,   4608,   5116,   5118,   5122,   5124,   5134,   5136,   5146,   5148,   5152,   5154,   5158,   5160
   5170,   5172,   5182,   5184,   5692,   5694,   5698,   5700,   5710,   5712,   5722,   5724,   5728,   5730,   5734,   5736
   5746,   5748,   5758,   5760,   6268,   6270,   6274,   6276,   6286,   6288,   6298,   6300,   6304,   6306,   6310,   6312
   6322,   6324,   6334,   6336,   6844,   6846,   6850,   6852,   6862,   6864,   6874,   6876,   6880,   6882,   6886,   6888
   6898,   6900,   6910,   6912,   7347,   7349,   7353,   7355,   7365,   7367,   7377,   7379,   7383,   7385,   7389,   7391
   7401,   7403,   7413,   7415,   7923,   7925,   7929,   7931,   7941,   7943,   7953,   7955,   7959,   7961,   7965,   7967
   7977,   7979,   7989,   7991,   8499,   8501,   8505,   8507,   8517,   8519,   8529,   8531,   8535,   8537,   8541,   8543
   8553,   8555,   8565,   8567,   9075,   9077,   9081,   9083,   9093,   9095,   9105,   9107,   9111,   9113,   9117,   9119
   9129,   9131,   9141,   9143,   9724,   9726,   9730,   9732,   9742,   9744,   9754,   9756,   9760,   9762,   9766,   9768
   9778,   9780,   9790,   9792,  10300,  10302,  10306,  10308,  10318,  10320,  10330,  10332,  10336,  10338,  10342,  10344
  10354,  10356,  10366,  10368,  10876,  10878,  10882,  10884,  10894,  10896,  10906,  10908,  10912,  10914,  10918,  10920
  10930,  10932,  10942,  10944,  11452,  11454,  11458,  11460,  11470,  11472,  11482,  11484,  11488,  11494,  11506,  11518
** ... 862 like lines cut
*Nset, nset=ND-BEP
    463,    465,    467,    501,    503,   1039,   1041,   1043,   1077,   1615,   1617,   1619,   1653,   2191,   2193,   2195
   2229,   2767,   2769,   2771,   2805,   3343,   3345,   3347,   3381,   3994,   3996,   4030,   4032,   4570,   4572,   4606
   4608,   5146,   5148,   5182,   5184,   5722,   5724,   5758,   5760,   6298,   6300,   6334,   6336,   6874,   6876,   6910
   6912,   7377,   7379,   7413,   7415,   7953,   7955,   7989,   7991,   8529,   8531,   8565,   8567,   9105,   9107,   9141
   9143,   9754,   9756,   9790,   9792,  10330,  10332,  10366,  10368,  10906,  10908,  10942,  10944,  11482,  11484,  11518
  80257,  80259,  80261,  80263,  80265,  80267,  80269,  80271,  80273,  80307,  80309,  80313,  80315,  80319,  80321,  80378
  80380,  80382,  80384,  80386,  80388,  80390,  80392,  80394,  80428,  80434,  80440,  80449,  80451,  80453,  80455,  80457
  80459,  80461,  80463,  80465,  80499,  80501,  80505,  80507,  80511,  80513,  80572,  80574,  80578,  80580,  80584,  80586
  80620,  80622,  80626,  80628,  80632,  80634,  80641,  80643,  80645,  80647,  80649,  80651,  80653,  80655,  80657,  80691
  80697,  80703,  80762,  80764,  80766,  80768,  80770,  80772,  80774,  80776,  80778,  80812,  80818,  80824,  80835,  80837
  80841,  80843,  80847,  80849,  80883,  80885,  80889,  80891,  80895,  80897,  80956,  80958,  80962,  80964,  80968,  80970
  81004,  81006,  81010,  81012,  81016,  81018,  81025,  81027,  81029,  81031,  81033,  81035,  81037,  81039,  81041,  81075
  81081,  81087,  81146,  81148,  81150,  81152,  81154,  81156,  81158,  81160,  81162,  81196,  81202,  81208,  81217,  81219
  81221,  81223,  81225,  81227,  81229,  81231,  81233,  81267,  81273,  81279,  81338,  81340,  81342,  81344,  81346,  81348
  81350,  81352,  81354,  81388,  81394,  81400,  81411,  81413,  81417,  81419,  81423,  81425,  81459,  81461,  81465,  81467
  81471,  81473,  81532,  81534,  81538,  81540,  81544,  81546,  81580,  81582,  81586,  81588,  81592,  81594,  81601,  81603
  81605,  81607,  81609,  81611,  81613,  81615,  81617,  81651,  81657,  81663,  81722,  81724,  81726,  81728,  81730,  81732
  81734,  81736,  81738,  81772,  81778,  81784,  81793,  81795,  81797,  81799,  81801,  81803,  81805,  81807,  81809,  81843
  81849,  81855,  81914,  81916,  81918,  81920,  81922,  81924,  81926,  81928,  81930,  81964,  81970,  81976,  81987,  81989
  81993,  81995,  81999,  82001,  82035,  82041,  82047,  82108,  82110,  82114,  82116,  82120,  82122,  82156,  82162,  82168
** ... 229 like lines cut
*Nset, nset=ND-SURF_PP__PP__PP_, internal
    463,    465,    467,    501,    503,   1039,   1041,   1043,   1077,   1615,   1617,   1619,   1653,   2191,   2193,   2195
   2229,   2767,   2769,   2771,   2805,   3343,   3345,   3347,   3381,   3994,   3996,   4030,   4032,   4570,   4572,   4606
   4608,   5146,   5148,   5182,   5184,   5722,   5724,   5758,   5760,   6298,   6300,   6334,   6336,   6874,   6876,   6910
   6912,   7377,   7379,   7413,   7415,   7953,   7955,   7989,   7991,   8529,   8531,   8565,   8567,   9105,   9107,   9141
   9143,   9754,   9756,   9790,   9792,  10330,  10332,  10366,  10368,  10906,  10908,  10942,  10944,  11482,  11484,  11518
  80257,  80259,  80261,  80263,  80265,  80267,  80269,  80271,  80273,  80307,  80309,  80313,  80315,  80319,  80321,  80378
  80380,  80382,  80384,  80386,  80388,  80390,  80392,  80394,  80428,  80434,  80440,  80449,  80451,  80453,  80455,  80457
  80459,  80461,  80463,  80465,  80499,  80501,  80505,  80507,  80511,  80513,  80572,  80574,  80578,  80580,  80584,  80586
  80620,  80622,  80626,  80628,  80632,  80634,  80641,  80643,  80645,  80647,  80649,  80651,  80653,  80655,  80657,  80691
  80697,  80703,  80762,  80764,  80766,  80768,  80770,  80772,  80774,  80776,  80778,  80812,  80818,  80824,  80835,  80837
  80841,  80843,  80847,  80849,  80883,  80885,  80889,  80891,  80895,  80897,  80956,  80958,  80962,  80964,  80968,  80970
  81004,  81006,  81010,  81012,  81016,  81018,  81025,  81027,  81029,  81031,  81033,  81035,  81037,  81039,  81041,  81075
  81081,  81087,  81146,  81148,  81150,  81152,  81154,  81156,  81158,  81160,  81162,  81196,  81202,  81208,  81217,  81219
  81221,  81223,  81225,  81227,  81229,  81231,  81233,  81267,  81273,  81279,  81338,  81340,  81342,  81344,  81346,  81348
  81350,  81352,  81354,  81388,  81394,  81400,  81411,  81413,  81417,  81419,  81423,  81425,  81459,  81461,  81465,  81467
  81471,  81473,  81532,  81534,  81538,  81540,  81544,  81546,  81580,  81582,  81586,  81588,  81592,  81594,  81601,  81603
  81605,  81607,  81609,  81611,  81613,  81615,  81617,  81651,  81657,  81663,  81722,  81724,  81726,  81728,  81730,  81732
  81734,  81736,  81738,  81772,  81778,  81784,  81793,  81795,  81797,  81799,  81801,  81803,  81805,  81807,  81809,  81843
  81849,  81855,  81914,  81916,  81918,  81920,  81922,  81924,  81926,  81928,  81930,  81964,  81970,  81976,  81987,  81989
  81993,  81995,  81999,  82001,  82035,  82041,  82047,  82108,  82110,  82114,  82116,  82120,  82122,  82156,  82162,  82168
** ... 229 like lines cut
** Section: Section-10-CEP
*Solid Section, elset=CEP, material=CEP
,
*End Part
**  
**
** ASSEMBLY
**
*Assembly, name=Assembly
**  
*Instance, name=L4-L5-1-1, part=L4-L5-1
*End Instance
**  
*Elset, elset=ALL_3DSOLID, instance=L4-L5-1-1
 14209, 14210, 14211, 14212, 14213, 14214, 14215, 14216, 14217, 14218, 14219, 14220, 14221, 14222, 14223, 14224
 14225, 14226, 14227, 14228, 14229, 14230, 14231, 14232, 14233, 14234, 14235, 14236, 14237, 14238, 14239, 14240
 14241, 14242, 14243, 14244, 14245, 14246, 14247, 14248, 14249, 14250, 14251, 14252, 14253, 14254, 14255, 14256
 14257, 14258, 14259, 14260, 14261, 14262, 14263, 14264, 14265, 14266, 14267, 14268, 14269, 14270, 14271, 14272
 14273, 14274, 14275, 14276, 14277, 14278, 14279, 14280, 14281, 14282, 14283, 14284, 14285, 14286, 14287, 14288
 14289, 14290, 14291, 14292, 14293, 14294, 14295, 14296, 14297, 14298, 14299, 14300, 14301, 14302, 14303, 14304
 14305, 14306, 14307, 14308, 14309, 14310, 14311, 14312, 14313, 14314, 14315, 14316, 14317, 14318, 14319, 14320
 14321, 14322, 14323, 14324, 14325, 14326, 14327, 14328, 14329, 14330, 14331, 14332, 14333, 14334, 14335, 14336
 14337, 14338, 14339, 14340, 14341, 14342, 14343, 14344, 14345, 14346, 14347, 14348, 14349, 14350, 14351, 14352
 14353, 14354, 14355, 14356, 14357, 14358, 14359, 14360, 14361, 14362, 14363, 14364, 14365, 14366, 14367, 14368
 14369, 14370, 14371, 14372, 14373, 14374, 14375, 14376, 14377, 14378, 14379, 14380, 14381, 14382, 14383, 14384
 14385, 14386, 14387, 14388, 14389, 14390, 14391, 14392, 14393, 14394, 14395, 14396, 14397, 14398, 14399, 14400
 14401, 14402, 14403, 14404, 14405, 14406, 14407, 14408, 14409, 14410, 14411, 14412, 14413, 14414, 14415, 14416
 14417, 14418, 14419, 14420, 14421, 14422, 14423, 14424, 14425, 14426, 14427, 14428, 14429, 14430, 14431, 14432
 14433, 14434, 14435, 14436, 14437, 14438, 14439, 14440, 14441, 14442, 14443, 14444, 14445, 14446, 14447, 14448
 14449, 14450, 14451, 14452, 14453, 14454, 14455, 14456, 14457, 14458, 14459, 14460, 14461, 14462, 14463, 14464
 14465, 14466, 14467, 14468, 14469, 14470, 14471, 14472, 14473, 14474, 14475, 14476, 14477, 14478, 14479, 14480
 14481, 14482, 14483, 14484, 14485, 14486, 14487, 14488, 14489, 14490, 14491, 14492, 14493, 14494, 14495, 14496
 14497, 14498, 14499, 14500, 14501, 14502, 14503, 14504, 14505, 14506, 14507, 14508, 14509, 14510, 14511, 14512
 14513, 14514, 14515, 14516, 14517, 14518, 14519, 14520, 14521, 14522, 14523, 14524, 14525, 14526, 14527, 14528
** ... 142 like lines cut
*Elset, elset=ALL_MASSIVE_ELEMENTS, instance=L4-L5-1-1
 14209, 14210, 14211, 14212, 14213, 14214, 14215, 14216, 14217, 14218, 14219, 14220, 14221, 14222, 14223, 14224
 14225, 14226, 14227, 14228, 14229, 14230, 14231, 14232, 14233, 14234, 14235, 14236, 14237, 14238, 14239, 14240
 14241, 14242, 14243, 14244, 14245, 14246, 14247, 14248, 14249, 14250, 14251, 14252, 14253, 14254, 14255, 14256
 14257, 14258, 14259, 14260, 14261, 14262, 14263, 14264, 14265, 14266, 14267, 14268, 14269, 14270, 14271, 14272
 14273, 14274, 14275, 14276, 14277, 14278, 14279, 14280, 14281, 14282, 14283, 14284, 14285, 14286, 14287, 14288
 14289, 14290, 14291, 14292, 14293, 14294, 14295, 14296, 14297, 14298, 14299, 14300, 14301, 14302, 14303, 14304
 14305, 14306, 14307, 14308, 14309, 14310, 14311, 14312, 14313, 14314, 14315, 14316, 14317, 14318, 14319, 14320
 14321, 14322, 14323, 14324, 14325, 14326, 14327, 14328, 14329, 14330, 14331, 14332, 14333, 14334, 14335, 14336
 14337, 14338, 14339, 14340, 14341, 14342, 14343, 14344, 14345, 14346, 14347, 14348, 14349, 14350, 14351, 14352
 14353, 14354, 14355, 14356, 14357, 14358, 14359, 14360, 14361, 14362, 14363, 14364, 14365, 14366, 14367, 14368
 14369, 14370, 14371, 14372, 14373, 14374, 14375, 14376, 14377, 14378, 14379, 14380, 14381, 14382, 14383, 14384
 14385, 14386, 14387, 14388, 14389, 14390, 14391, 14392, 14393, 14394, 14395, 14396, 14397, 14398, 14399, 14400
 14401, 14402, 14403, 14404, 14405, 14406, 14407, 14408, 14409, 14410, 14411, 14412, 14413, 14414, 14415, 14416
 14417, 14418, 14419, 14420, 14421, 14422, 14423, 14424, 14425, 14426, 14427, 14428, 14429, 14430, 14431, 14432
 14433, 14434, 14435, 14436, 14437, 14438, 14439, 14440, 14441, 14442, 14443, 14444, 14445, 14446, 14447, 14448
 14449, 14450, 14451, 14452, 14453, 14454, 14455, 14456, 14457, 14458, 14459, 14460, 14461, 14462, 14463, 14464
 14465, 14466, 14467, 14468, 14469, 14470, 14471, 14472, 14473, 14474, 14475, 14476, 14477, 14478, 14479, 14480
 14481, 14482, 14483, 14484, 14485, 14486, 14487, 14488, 14489, 14490, 14491, 14492, 14493, 14494, 14495, 14496
 14497, 14498, 14499, 14500, 14501, 14502, 14503, 14504, 14505, 14506, 14507, 14508, 14509, 14510, 14511, 14512
 14513, 14514, 14515, 14516, 14517, 14518, 14519, 14520, 14521, 14522, 14523, 14524, 14525, 14526, 14527, 14528
** ... 142 like lines cut
*End Assembly
*Amplitude, name=AMP-1
             0.,              1.,          28790.,              1.
*Amplitude, name=AMP-2
             0.,              1.,          57590.,              1.
** 
** MATERIALS
** 
** ********************************************
**   Annulus
** ********************************************
*Material, name=AF
*Depvar
      8,
*User Defined Field
*User Material, constants=6
 0.84, 0.704,  0.15,  0.18,  0.65,    0.
*Material, name=AF-Z1
*Depvar
      8,
*User Defined Field
*User Material, constants=6
 0.84, 0.704,  0.15,  0.18,  0.65,    0.
*Material, name=AF-Z2
*Depvar
      8,
*User Defined Field
*User Material, constants=6
 0.84, 0.704,  0.15,  0.18,  0.65,    0.
*Material, name=BEP
*Elastic
10000., 0.3
*Permeability, specific=1.
26800., 0.05
** ********************************************
**   Cartilage endplates
** ********************************************
*Material, name=CEP
*Depvar
      8,
*User Defined Field
*User Material, constants=6
1., 0.589,  0.15, 0.166,  0.24,    0.
*Material, name=COLLAGEN
*Depvar
      1,
*User Material, constants=5
4000., 2.8, 11., 6.1,  8.
*Material, name=NP
*Depvar
      8,
*User Defined Field
*User Material, constants=6
1., 0.745,  0.15,  0.29,  0.15,    0.
*Material, name=NP-Z1
*Depvar
      8,
*User Defined Field
*User Material, constants=6
1., 0.745,  0.15,  0.29,  0.15,    0.
*Material, name=NP-Z2
*Depvar
      8,
*User Defined Field
*User Material, constants=6
1., 0.745,  0.15,  0.29,  0.15,    0.
*Material, name=NP-Z3
*Depvar
      8,
*User Defined Field
*User Material, constants=6
1., 0.745,  0.15,  0.29,  0.15,    0.
*Material, name=NP-Z4
*Depvar
      8,
*User Defined Field
*User Material, constants=6
1., 0.745,  0.15,  0.29,  0.15,    0.
*Material, name=NP-Z5
*Depvar
      8,
*User Defined Field
*User Material, constants=6
1., 0.745,  0.15,  0.29,  0.15,    0.
** 
** PREDEFINED FIELDS
** 
** Name: Field-1   Type: Field
*Initial Conditions, type=FIELD, variable=1
L4-L5-1-1.ND-CEP, 0.017
** Name: Field-2   Type: Field
*Initial Conditions, type=FIELD, variable=1
L4-L5-1-1.ND-AF, 0.00016
** Name: Field-3   Type: Field
*Initial Conditions, type=FIELD, variable=1
L4-L5-1-1.ND-NP, 0.00016
** Name: Field-4   Type: Field
*Initial Conditions, type=FIELD, variable=2
L4-L5-1-1.ND-CEP, 1.2
** Name: Field-5   Type: Field
*Initial Conditions, type=FIELD, variable=2
L4-L5-1-1.ND-AF, 1.2
** Name: Field-6   Type: Field
*Initial Conditions, type=FIELD, variable=2
L4-L5-1-1.ND-NP, 1.2
** Name: Field-7   Type: Field
*Initial Conditions, type=FIELD, variable=3
L4-L5-1-1.ND-CEP, 1.94
** Name: Field-8   Type: Field
*Initial Conditions, type=FIELD, variable=3
L4-L5-1-1.ND-AF, 3.
** Name: Field-9   Type: Field
*Initial Conditions, type=FIELD, variable=3
L4-L5-1-1.ND-NP, 4.
** Name: Field-10   Type: Field
*Initial Conditions, type=FIELD, variable=4
L4-L5-1-1.ND-CEP, 0.017
** Name: Field-11   Type: Field
*Initial Conditions, type=FIELD, variable=4
L4-L5-1-1.ND-AF, 0.00016
** Name: Field-12   Type: Field
*Initial Conditions, type=FIELD, variable=4
L4-L5-1-1.ND-NP, 0.00016
** Name: IC-1   Type: Void ratio
*Initial Conditions, TYPE=RATIO
L4-L5-1-1.ND-CEP, 1.94
** Name: IC-2   Type: Void ratio
*Initial Conditions, TYPE=RATIO
L4-L5-1-1.ND-AF, 3.
** Name: IC-3   Type: Void ratio
*Initial Conditions, TYPE=RATIO
L4-L5-1-1.ND-NP, 4.
** ----------------------------------------------------------------
** 
** STEP: Swelling
** 
*Step, name=Swelling, nlgeom=YES, inc=1000
Free swelling
*Soils, consolidation, end=PERIOD, utol=5.
2000., 61200., 2000., 61200., 
** 
** CONTROLS
** 
*Controls, reset
*Controls, analysis=discontinuous
*Controls, parameters=line search
4, 4., 0.05, , 0.15
*Controls, parameters=field, field=displacement
0.075, 0.075, , , , , , 
*Controls, parameters=field, field=hydrostatic fluid pressure
0.075, 0.075, , , , , , 
*Controls, parameters=field, field=rotation
0.075, 0.075, , , , , , 
*Controls, parameters=field, field=pore fluid pressure
0.075, 0.075, , , , , , 
** 
** OUTPUT REQUESTS
** 
*Restart, write, overlay, frequency=1
** 
** FIELD OUTPUT: F-Output-3
** 
*Output, field
*Node Output
CF, POR, RF, U
** 
** FIELD OUTPUT: F-Output-1
** 
*Element Output, rebar, directions=YES
FLUVR, FLVEL, LE, RBANG, RBFOR, RBROT, S, VOIDR
** 
** FIELD OUTPUT: F-Output-2
** 
*Element Output, directions=YES
FLUVR, FLVEL, LE, S, SDV, VOIDR
** 
** HISTORY OUTPUT: H-Output-1
** 
*Output, history, variable=PRESELECT
*End Step
** ----------------------------------------------------------------
** 
** STEP: Carga_noche
** 
*Step, name=Carga_noche, nlgeom=YES, amplitude=RAMP, inc=1000
Load at rest time
*Soils, consolidation, end=PERIOD, utol=5.
2.5, 10., 0.0001, 10., 
** 
** CONTROLS
** 
*Controls, reset
*Controls, analysis=discontinuous
*Controls, parameters=line search
4, 4., 0.05, , 0.15
*Controls, parameters=field, field=displacement
0.075, 0.075, , , , , , 
*Controls, parameters=field, field=hydrostatic fluid pressure
0.075, 0.075, , , , , , 
*Controls, parameters=field, field=rotation
0.075, 0.075, , , , , , 
*Controls, parameters=field, field=pore fluid pressure
0.075, 0.075, , , , , , 
** 
** OUTPUT REQUESTS
** 
*Restart, write, overlay, frequency=1
** 
** FIELD OUTPUT: F-Output-6
** 
*Output, field
*Node Output
CF, POR, RF, U
** 
** FIELD OUTPUT: F-Output-4
** 
*Element Output, rebar, directions=YES
FLUVR, FLVEL, LE, RBANG, RBFOR, RBROT, S, VOIDR
** 
** FIELD OUTPUT: F-Output-5
** 
*Element Output, directions=YES
FLUVR, FLVEL, LE, S, SDV, VOIDR
** 
** HISTORY OUTPUT: H-Output-2
** 
*Output, history, variable=PRESELECT
*End Step
** ----------------------------------------------------------------
** 
** STEP: Creep_noche
** 
*Step, name=Creep_noche, nlgeom=YES, inc=1000
*Soils, consolidation, end=PERIOD, utol=5.
5., 28790., 1., 28790., 
** 
** CONTROLS
** 
*Controls, reset
*Controls, analysis=discontinuous
*Controls, parameters=line search
4, 4., 0.05, , 0.15
*Controls, parameters=field, field=displacement
0.075, 0.075, , , , , , 
*Controls, parameters=field, field=hydrostatic fluid pressure
0.075, 0.075, , , , , , 
*Controls, parameters=field, field=rotation
0.075, 0.075, , , , , , 
*Controls, parameters=field, field=pore fluid pressure
0.075, 0.075, , , , , , 
** 
** OUTPUT REQUESTS
** 
*Restart, write, overlay, frequency=1
** 
** FIELD OUTPUT: F-Output-8
** 
*Output, field
*Node Output
CF, POR, RF, U
** 
** FIELD OUTPUT: F-Output-7
** 
*Element Output, directions=YES
FLUVR, FLVEL, LE, S, SDV, VOIDR
** 
** HISTORY OUTPUT: H-Output-3
** 
*Output, history, variable=PRESELECT
*End Step
** ----------------------------------------------------------------
** 
** STEP: Carga_dia
** 
*Step, name=Carga_dia, nlgeom=YES, amplitude=RAMP, inc=1000
*Soils, consolidation, end=PERIOD, utol=5.
0.1, 10., 0.0001, 10., 
** 
** OUTPUT REQUESTS
** 
*Restart, write, overlay, frequency=1
** 
** FIELD OUTPUT: F-Output-11
** 
*Output, field
*Node Output
CF, POR, RF, U
** 
** FIELD OUTPUT: F-Output-9
** 
*Element Output, rebar, directions=YES
FLUVR, FLVEL, LE, RBANG, RBFOR, RBROT, S, VOIDR
** 
** FIELD OUTPUT: F-Output-10
** 
*Element Output, directions=YES
FLUVR, FLVEL, LE, S, SDV, VOIDR
** 
** HISTORY OUTPUT: H-Output-4
** 
*Output, history, variable=PRESELECT
*End Step
** ----------------------------------------------------------------
** 
** STEP: Creep_dia
** 
*Step, name=Creep_dia, nlgeom=YES, inc=1000
*Soils, consolidation, end=PERIOD, utol=5.
2.5, 57590., 0.001, 57590., 
** 
** OUTPUT REQUESTS
** 
*Restart, write, overlay, frequency=1
** 
** FIELD OUTPUT: F-Output-14
** 
*Output, field
*Node Output
CF, POR, RF, U
** 
** FIELD OUTPUT: F-Output-12
** 
*Element Output, rebar, directions=YES
FLUVR, FLVEL, LE, RBANG, RBFOR, RBROT, S, VOIDR
** 
** FIELD OUTPUT: F-Output-13
** 
*Element Output, directions=YES
FLUVR, FLVEL, LE, S, SDV, VOIDR
** 
** HISTORY OUTPUT: H-Output-5
** 
*Output, history, variable=PRESELECT
*End Step
