*Heading
** Job name: NPTemplate Model name: L4-L5
** Generated by: Abaqus/CAE 2019
*Preprint, echo=NO, model=NO, history=NO, contact=NO
**
** PARTS
**
*Part, name=PART-1
*Node
*Element, type=C3D20P
 7041,  42241,  42247,  42249,  42243,  42242,  42248,  42250,  42244, 163616, 163615, 163614, 163613, 163617, 163618, 163619,
       163620, 163622, 163621, 163623, 163624
 7042,  42243,  42249,  42251,  42245,  42244,  42250,  42252,  42246, 163614, 163627, 163626, 163625, 163619, 163628, 163629,
       163630, 163624, 163623, 163631, 163632
 7043,  42247,  42259,  42261,  42249,  42248,  42260,  42262,  42250, 163635, 163634, 163633, 163615, 163636, 163637, 163638,
       163618, 163621, 163639, 163640, 163623
 7044,  42249,  42261,  42263,  42251,  42250,  42262,  42264,  42252, 163633, 163642, 163641, 163627, 163638, 163643, 163644,
       163628, 163623, 163640, 163645, 163631
 7045,  42259,  42271,  42273,  42261,  42260,  42272,  42274,  42262, 163648, 163647, 163646, 163634, 163649, 163650, 163651,
       163637, 163639, 163652, 163653, 163640
 7046,  42261,  42273,  42275,  42263,  42262,  42274,  42276,  42264, 163646, 163655, 163654, 163642, 163651, 163656, 163657,
       163643, 163640, 163653, 163658, 163645
 7047,  42271,  42283,  42285,  42273,  42272,  42284,  42286,  42274, 163661, 163660, 163659, 163647, 163662, 163663, 163664,
       163650, 163652, 163665, 163666, 163653
 7048,  42273,  42285,  42287,  42275,  42274,  42286,  42288,  42276, 163659, 163668, 163667, 163655, 163664, 163669, 163670,
       163656, 163653, 163666, 163671, 163658
 7049,  42283,  38717,  39075,  42285,  42284,  38718,  39076,  42286, 163673, 154333, 163672, 163660, 163674, 154335, 163675,
       163663, 163665, 154336, 154334, 163666
 7050,  42285,  39075,  39077,  42287,  42286,  39076,  39078,  42288, 163672, 154337, 163676, 163668, 163675, 154339, 163677,
       163669, 163666, 154334, 154338, 163671
** ... 14316 like lines cut
*Elset, elset=NP-Z5
  7049,  7050,  7059,  7060,  7069,  7070,  7079,  7080,  7081,  7082,  7091,  7092,  7101,  7102,  7111,  7112
  7121,  7122,  7131,  7132,  7141,  7142,  7151,  7152,  7161,  7162,  7171,  7172,  7181,  7182,  7191,  7192
  7209,  7210,  7219,  7220,  7229,  7230,  7239,  7240,  7249,  7250,  7259,  7260,  7269,  7270,  7279,  7280
  7289,  7290,  7299,  7300,  7309,  7310,  7319,  7320,  7321,  7322,  7331,  7332,  7341,  7342,  7351,  7352
  7369,  7370,  7379,  7380,  7389,  7390,  7399,  7400,  7401,  7402,  7411,  7412,  7421,  7422,  7431,  7432
  7441,  7442,  7451,  7452,  7461,  7462,  7471,  7472,  7489,  7490,  7499,  7500,  7509,  7510,  7519,  7520
  7521,  7522,  7531,  7532,  7541,  7542,  7551,  7552,  7561,  7562,  7571,  7572,  7581,  7582,  7591,  7592
  7601,  7602,  7611,  7612,  7621,  7622,  7631,  7632,  7641,  7642,  7651,  7652,  7661,  7662,  7671,  7672
  7689,  7690,  7699,  7700,  7709,  7710,  7719,  7720,  7721,  7722,  7731,  7732,  7741,  7742,  7751,  7752
  7761,  7762,  7771,  7772,  7781,  7782,  7791,  7792,  7809,  7810,  7819,  7820,  7829,  7830,  7839,  7840
  7841,  7842,  7851,  7852,  7861,  7862,  7871,  7872,  7889,  7890,  7899,  7900,  7909,  7910,  7919,  7920
  7929,  7930,  7939,  7940,  7949,  7950,  7959,  7960,  7961,  7962,  7971,  7972,  7981,  7982,  7991,  7992
  8009,  8010,  8019,  8020,  8029,  8030,  8039,  8040,  8049,  8050,  8059,  8060,  8069,  8070,  8079,  8080
  8081,  8082,  8091,  8092,  8101,  8102,  8111,  8112,  8121,  8122,  8131,  8132,  8141,  8142,  8151,  8152
  8161,  8162,  8171,  8172,  8181,  8182,  8191,  8192,  8201,  8202,  8211,  8212,  8221,  8222,  8231,  8232
  8241,  8242,  8251,  8252,  8261,  8262,  8271,  8272,  8281,  8282,  8291,  8292,  8301,  8302,  8311,  8312
  8329,  8330,  8339,  8340,  8349,  8350,  8359,  8360,  8369,  8370,  8379,  8380,  8389,  8390,  8399,  8400
  8409,  8410,  8419,  8420,  8429,  8430,  8439,  8440,  8449,  8450,  8459,  8460,  8469,  8470,  8479,  8480
  8489,  8490,  8499,  8500,  8509,  8510,  8519,  8520,  8529,  8530,  8539,  8540,  8549,  8550,  8559,  8560
  8569,  8570,  8579,  8580,  8589,  8590,  8599,  8600,  8609,  8610,  8619,  8620,  8629,  8630,  8639,  8640
** ... 20 like lines cut
*Elset, elset=NP-Z4
  7047,  7048,  7057,  7058,  7067,  7068,  7077,  7078,  7083,  7084,  7093,  7094,  7103,  7104,  7113,  7114
  7123,  7124,  7133,  7134,  7143,  7144,  7153,  7154,  7163,  7164,  7173,  7174,  7183,  7184,  7193,  7194
  7207,  7208,  7217,  7218,  7227,  7228,  7237,  7238,  7247,  7248,  7257,  7258,  7267,  7268,  7277,  7278
  7287,  7288,  7297,  7298,  7307,  7308,  7317,  7318,  7323,  7324,  7333,  7334,  7343,  7344,  7353,  7354
  7367,  7368,  7377,  7378,  7387,  7388,  7397,  7398,  7403,  7404,  7413,  7414,  7423,  7424,  7433,  7434
  7443,  7444,  7453,  7454,  7463,  7464,  7473,  7474,  7487,  7488,  7497,  7498,  7507,  7508,  7517,  7518
  7523,  7524,  7533,  7534,  7543,  7544,  7553,  7554,  7563,  7564,  7573,  7574,  7583,  7584,  7593,  7594
  7603,  7604,  7613,  7614,  7623,  7624,  7633,  7634,  7643,  7644,  7653,  7654,  7663,  7664,  7673,  7674
  7687,  7688,  7697,  7698,  7707,  7708,  7717,  7718,  7723,  7724,  7733,  7734,  7743,  7744,  7753,  7754
  7763,  7764,  7773,  7774,  7783,  7784,  7793,  7794,  7807,  7808,  7817,  7818,  7827,  7828,  7837,  7838
  7843,  7844,  7853,  7854,  7863,  7864,  7873,  7874,  7887,  7888,  7897,  7898,  7907,  7908,  7917,  7918
  7927,  7928,  7937,  7938,  7947,  7948,  7957,  7958,  7963,  7964,  7973,  7974,  7983,  7984,  7993,  7994
  8007,  8008,  8017,  8018,  8027,  8028,  8037,  8038,  8047,  8048,  8057,  8058,  8067,  8068,  8077,  8078
  8083,  8084,  8093,  8094,  8103,  8104,  8113,  8114,  8123,  8124,  8133,  8134,  8143,  8144,  8153,  8154
  8163,  8164,  8173,  8174,  8183,  8184,  8193,  8194,  8203,  8204,  8213,  8214,  8223,  8224,  8233,  8234
  8243,  8244,  8253,  8254,  8263,  8264,  8273,  8274,  8283,  8284,  8293,  8294,  8303,  8304,  8313,  8314
  8327,  8328,  8337,  8338,  8347,  8348,  8357,  8358,  8367,  8368,  8377,  8378,  8387,  8388,  8397,  8398
  8407,  8408,  8417,  8418,  8427,  8428,  8437,  8438,  8447,  8448,  8457,  8458,  8467,  8468,  8477,  8478
  8487,  8488,  8497,  8498,  8507,  8508,  8517,  8518,  8527,  8528,  8537,  8538,  8547,  8548,  8557,  8558
  8567,  8568,  8577,  8578,  8587,  8588,  8597,  8598,  8607,  8608,  8617,  8618,  8627,  8628,  8637,  8638
** ... 20 like lines cut
*Elset, elset=NP-Z3
  7045,  7046,  7055,  7056,  7065,  7066,  7075,  7076,  7085,  7086,  7095,  7096,  7105,  7106,  7115,  7116
  7125,  7126,  7135,  7136,  7145,  7146,  7155,  7156,  7165,  7166,  7175,  7176,  7185,  7186,  7195,  7196
  7205,  7206,  7215,  7216,  7225,  7226,  7235,  7236,  7245,  7246,  7255,  7256,  7265,  7266,  7275,  7276
  7285,  7286,  7295,  7296,  7305,  7306,  7315,  7316,  7325,  7326,  7335,  7336,  7345,  7346,  7355,  7356
  7365,  7366,  7375,  7376,  7385,  7386,  7395,  7396,  7405,  7406,  7415,  7416,  7425,  7426,  7435,  7436
  7445,  7446,  7455,  7456,  7465,  7466,  7475,  7476,  7485,  7486,  7495,  7496,  7505,  7506,  7515,  7516
  7525,  7526,  7535,  7536,  7545,  7546,  7555,  7556,  7565,  7566,  7575,  7576,  7585,  7586,  7595,  7596
  7605,  7606,  7615,  7616,  7625,  7626,  7635,  7636,  7645,  7646,  7655,  7656,  7665,  7666,  7675,  7676
  7685,  7686,  7695,  7696,  7705,  7706,  7715,  7716,  7725,  7726,  7735,  7736,  7745,  7746,  7755,  7756
  7765,  7766,  7775,  7776,  7785,  7786,  7795,  7796,  7805,  7806,  7815,  7816,  7825,  7826,  7835,  7836
  7845,  7846,  7855,  7856,  7865,  7866,  7875,  7876,  7885,  7886,  7895,  7896,  7905,  7906,  7915,  7916
  7925,  7926,  7935,  7936,  7945,  7946,  7955,  7956,  7965,  7966,  7975,  7976,  7985,  7986,  7995,  7996
  8005,  8006,  8015,  8016,  8025,  8026,  8035,  8036,  8045,  8046,  8055,  8056,  8065,  8066,  8075,  8076
  8085,  8086,  8095,  8096,  8105,  8106,  8115,  8116,  8125,  8126,  8135,  8136,  8145,  8146,  8155,  8156
  8165,  8166,  8175,  8176,  8185,  8186,  8195,  8196,  8205,  8206,  8215,  8216,  8225,  8226,  8235,  8236
  8245,  8246,  8255,  8256,  8265,  8266,  8275,  8276,  8285,  8286,  8295,  8296,  8305,  8306,  8315,  8316
  8325,  8326,  8335,  8336,  8345,  8346,  8355,  8356,  8365,  8366,  8375,  8376,  8385,  8386,  8395,  8396
  8405,  8406,  8415,  8416,  8425,  8426,  8435,  8436,  8445,  8446,  8455,  8456,  8465,  8466,  8475,  8476
  8485,  8486,  8495,  8496,  8505,  8506,  8515,  8516,  8525,  8526,  8535,  8536,  8545,  8546,  8555,  8556
  8565,  8566,  8575,  8576,  8585,  8586,  8595,  8596,  8605,  8606,  8615,  8616,  8625,  8626,  8635,  8636
** ... 20 like lines cut
*Elset, elset=NP-Z2
  7043,  7044,  7053,  7054,  7063,  7064,  7073,  7074,  7087,  7088,  7097,  7098,  7107,  7108,  7117,  7118
  7127,  7128,  7137,  7138,  7147,  7148,  7157,  7158,  7167,  7168,  7177,  7178,  7187,  7188,  7197,  7198
  7203,  7204,  7213,  7214,  7223,  7224,  7233,  7234,  7243,  7244,  7253,  7254,  7263,  7264,  7273,  7274
  7283,  7284,  7293,  7294,  7303,  7304,  7313,  7314,  7327,  7328,  7337,  7338,  7347,  7348,  7357,  7358
  7363,  7364,  7373,  7374,  7383,  7384,  7393,  7394,  7407,  7408,  7417,  7418,  7427,  7428,  7437,  7438
  7447,  7448,  7457,  7458,  7467,  7468,  7477,  7478,  7483,  7484,  7493,  7494,  7503,  7504,  7513,  7514
  7527,  7528,  7537,  7538,  7547,  7548,  7557,  7558,  7567,  7568,  7577,  7578,  7587,  7588,  7597,  7598
  7607,  7608,  7617,  7618,  7627,  7628,  7637,  7638,  7647,  7648,  7657,  7658,  7667,  7668,  7677,  7678
  7683,  7684,  7693,  7694,  7703,  7704,  7713,  7714,  7727,  7728,  7737,  7738,  7747,  7748,  7757,  7758
  7767,  7768,  7777,  7778,  7787,  7788,  7797,  7798,  7803,  7804,  7813,  7814,  7823,  7824,  7833,  7834
  7847,  7848,  7857,  7858,  7867,  7868,  7877,  7878,  7883,  7884,  7893,  7894,  7903,  7904,  7913,  7914
  7923,  7924,  7933,  7934,  7943,  7944,  7953,  7954,  7967,  7968,  7977,  7978,  7987,  7988,  7997,  7998
  8003,  8004,  8013,  8014,  8023,  8024,  8033,  8034,  8043,  8044,  8053,  8054,  8063,  8064,  8073,  8074
  8087,  8088,  8097,  8098,  8107,  8108,  8117,  8118,  8127,  8128,  8137,  8138,  8147,  8148,  8157,  8158
  8167,  8168,  8177,  8178,  8187,  8188,  8197,  8198,  8207,  8208,  8217,  8218,  8227,  8228,  8237,  8238
  8247,  8248,  8257,  8258,  8267,  8268,  8277,  8278,  8287,  8288,  8297,  8298,  8307,  8308,  8317,  8318
  8323,  8324,  8333,  8334,  8343,  8344,  8353,  8354,  8363,  8364,  8373,  8374,  8383,  8384,  8393,  8394
  8403,  8404,  8413,  8414,  8423,  8424,  8433,  8434,  8443,  8444,  8453,  8454,  8463,  8464,  8473,  8474
  8483,  8484,  8493,  8494,  8503,  8504,  8513,  8514,  8523,  8524,  8533,  8534,  8543,  8544,  8553,  8554
  8563,  8564,  8573,  8574,  8583,  8584,  8593,  8594,  8603,  8604,  8613,  8614,  8623,  8624,  8633,  8634
** ... 20 like lines cut
*Elset, elset=NP-Z1
  7041,  7042,  7051,  7052,  7061,  7062,  7071,  7072,  7089,  7090,  7099,  7100,  7109,  7110,  7119,  7120
  7129,  7130,  7139,  7140,  7149,  7150,  7159,  7160,  7169,  7170,  7179,  7180,  7189,  7190,  7199,  7200
  7201,  7202,  7211,  7212,  7221,  7222,  7231,  7232,  7241,  7242,  7251,  7252,  7261,  7262,  7271,  7272
  7281,  7282,  7291,  7292,  7301,  7302,  7311,  7312,  7329,  7330,  7339,  7340,  7349,  7350,  7359,  7360
  7361,  7362,  7371,  7372,  7381,  7382,  7391,  7392,  7409,  7410,  7419,  7420,  7429,  7430,  7439,  7440
  7449,  7450,  7459,  7460,  7469,  7470,  7479,  7480,  7481,  7482,  7491,  7492,  7501,  7502,  7511,  7512
  7529,  7530,  7539,  7540,  7549,  7550,  7559,  7560,  7569,  7570,  7579,  7580,  7589,  7590,  7599,  7600
  7609,  7610,  7619,  7620,  7629,  7630,  7639,  7640,  7649,  7650,  7659,  7660,  7669,  7670,  7679,  7680
  7681,  7682,  7691,  7692,  7701,  7702,  7711,  7712,  7729,  7730,  7739,  7740,  7749,  7750,  7759,  7760
  7769,  7770,  7779,  7780,  7789,  7790,  7799,  7800,  7801,  7802,  7811,  7812,  7821,  7822,  7831,  7832
  7849,  7850,  7859,  7860,  7869,  7870,  7879,  7880,  7881,  7882,  7891,  7892,  7901,  7902,  7911,  7912
  7921,  7922,  7931,  7932,  7941,  7942,  7951,  7952,  7969,  7970,  7979,  7980,  7989,  7990,  7999,  8000
  8001,  8002,  8011,  8012,  8021,  8022,  8031,  8032,  8041,  8042,  8051,  8052,  8061,  8062,  8071,  8072
  8089,  8090,  8099,  8100,  8109,  8110,  8119,  8120,  8129,  8130,  8139,  8140,  8149,  8150,  8159,  8160
  8169,  8170,  8179,  8180,  8189,  8190,  8199,  8200,  8209,  8210,  8219,  8220,  8229,  8230,  8239,  8240
  8249,  8250,  8259,  8260,  8269,  8270,  8279,  8280,  8289,  8290,  8299,  8300,  8309,  8310,  8319,  8320
  8321,  8322,  8331,  8332,  8341,  8342,  8351,  8352,  8361,  8362,  8371,  8372,  8381,  8382,  8391,  8392
  8401,  8402,  8411,  8412,  8421,  8422,  8431,  8432,  8441,  8442,  8451,  8452,  8461,  8462,  8471,  8472
  8481,  8482,  8491,  8492,  8501,  8502,  8511,  8512,  8521,  8522,  8531,  8532,  8541,  8542,  8551,  8552
  8561,  8562,  8571,  8572,  8581,  8582,  8591,  8592,  8601,  8602,  8611,  8612,  8621,  8622,  8631,  8632
** ... 20 like lines cut
*Elset, elset=NP, generate
 10241,  14208,      1
*Nset, nset=ND-AF
  34561,  34562,  34563,  34564,  34565,  34566,  34587,  34588,  34589,  34590,  34609,  34610,  34611,  34612,  34613,  34614
  34635,  34636,  34637,  34638,  34658,  34660,  34662,  34684,  34686,  34706,  34708,  34710,  34732,  34734,  34754,  34756
  34758,  34780,  34782,  34802,  34804,  34806,  34828,  34830,  34850,  34852,  34854,  34876,  34878,  34945,  34946,  34947
  34948,  34949,  34950,  34971,  34972,  34994,  34996,  34998,  35020,  35042,  35044,  35046,  35068,  35090,  35092,  35094
  35116,  35138,  35140,  35142,  35164,  35186,  35188,  35190,  35212,  35234,  35236,  35238,  35260,  35282,  35284,  35286
  35308,  35329,  35330,  35331,  35332,  35333,  35334,  35355,  35356,  35378,  35380,  35382,  35404,  35426,  35428,  35430
  35452,  35474,  35476,  35478,  35500,  35522,  35524,  35526,  35548,  35570,  35572,  35574,  35596,  35618,  35620,  35622
  35644,  35666,  35668,  35670,  35692,  35713,  35714,  35715,  35716,  35717,  35718,  35739,  35740,  35762,  35764,  35766
  35788,  35810,  35812,  35814,  35836,  35858,  35860,  35862,  35884,  35906,  35908,  35910,  35932,  35954,  35956,  35958
  35980,  36002,  36004,  36006,  36028,  36050,  36052,  36054,  36076,  36097,  36098,  36099,  36100,  36101,  36102,  36123
  36124,  36146,  36148,  36150,  36172,  36194,  36196,  36198,  36220,  36242,  36244,  36246,  36268,  36290,  36292,  36294
  36316,  36338,  36340,  36342,  36364,  36386,  36388,  36390,  36412,  36434,  36436,  36438,  36460,  36481,  36482,  36483
  36484,  36485,  36486,  36507,  36508,  36530,  36532,  36534,  36556,  36578,  36580,  36582,  36604,  36626,  36628,  36630
  36652,  36674,  36676,  36678,  36700,  36722,  36724,  36726,  36748,  36770,  36772,  36774,  36796,  36818,  36820,  36822
  36844,  36867,  36868,  36869,  36870,  36891,  36892,  36893,  36894,  36916,  36918,  36940,  36942,  36963,  36964,  36965
  36966,  36987,  36988,  36989,  36990,  37059,  37060,  37061,  37062,  37083,  37084,  37085,  37086,  37155,  37156,  37157
  37158,  37179,  37180,  37181,  37182,  37251,  37252,  37253,  37254,  37275,  37276,  37277,  37278,  37300,  37302,  37324
  37326,  37347,  37348,  37349,  37350,  37371,  37372,  37373,  37374,  37443,  37444,  37445,  37446,  37467,  37468,  37469
  37470,  37539,  37540,  37541,  37542,  37563,  37564,  37565,  37566,  37635,  37636,  37637,  37638,  37659,  37660,  37661
  37662,  37684,  37686,  37708,  37710,  37731,  37732,  37733,  37734,  37755,  37756,  37757,  37758,  37827,  37828,  37829
** ... 110 like lines cut
*Nset, nset=ND-NP
  34561,  34562,  34563,  34564,  34565,  34566,  34587,  34588,  34589,  34590,  34609,  34610,  34611,  34612,  34613,  34614
  34635,  34636,  34637,  34638,  34658,  34660,  34662,  34684,  34686,  34706,  34708,  34710,  34732,  34734,  34754,  34756
  34758,  34780,  34782,  34802,  34804,  34806,  34828,  34830,  34850,  34852,  34854,  34876,  34878,  34945,  34946,  34947
  34948,  34949,  34950,  34971,  34972,  34994,  34996,  34998,  35020,  35042,  35044,  35046,  35068,  35090,  35092,  35094
  35116,  35138,  35140,  35142,  35164,  35186,  35188,  35190,  35212,  35234,  35236,  35238,  35260,  35282,  35284,  35286
  35308,  35329,  35330,  35331,  35332,  35333,  35334,  35355,  35356,  35378,  35380,  35382,  35404,  35426,  35428,  35430
  35452,  35474,  35476,  35478,  35500,  35522,  35524,  35526,  35548,  35570,  35572,  35574,  35596,  35618,  35620,  35622
  35644,  35666,  35668,  35670,  35692,  35713,  35714,  35715,  35716,  35717,  35718,  35739,  35740,  35762,  35764,  35766
  35788,  35810,  35812,  35814,  35836,  35858,  35860,  35862,  35884,  35906,  35908,  35910,  35932,  35954,  35956,  35958
  35980,  36002,  36004,  36006,  36028,  36050,  36052,  36054,  36076,  36097,  36098,  36099,  36100,  36101,  36102,  36123
  36124,  36146,  36148,  36150,  36172,  36194,  36196,  36198,  36220,  36242,  36244,  36246,  36268,  36290,  36292,  36294
  36316,  36338,  36340,  36342,  36364,  36386,  36388,  36390,  36412,  36434,  36436,  36438,  36460,  36481,  36482,  36483
  36484,  36485,  36486,  36507,  36508,  36530,  36532,  36534,  36556,  36578,  36580,  36582,  36604,  36626,  36628,  36630
  36652,  36674,  36676,  36678,  36700,  36722,  36724,  36726,  36748,  36770,  36772,  36774,  36796,  36818,  36820,  36822
  36844,  36867,  36868,  36869,  36870,  36891,  36892,  36893,  36894,  36916,  36918,  36940,  36942,  36963,  36964,  36965
  36966,  36987,  36988,  36989,  36990,  37059,  37060,  37061,  37062,  37083,  37084,  37085,  37086,  37155,  37156,  37157
  37158,  37179,  37180,  37181,  37182,  37251,  37252,  37253,  37254,  37275,  37276,  37277,  37278,  37300,  37302,  37324
  37326,  37347,  37348,  37349,  37350,  37371,  37372,  37373,  37374,  37443,  37444,  37445,  37446,  37467,  37468,  37469
  37470,  37539,  37540,  37541,  37542,  37563,  37564,  37565,  37566,  37635,  37636,  37637,  37638,  37659,  37660,  37661
  37662,  37684,  37686,  37708,  37710,  37731,  37732,  37733,  37734,  37755,  37756,  37757,  37758,  37827,  37828,  37829
** ... 2007 like lines cut
*Nset, nset=ND-CEP
  34562,  34564,  34566,  34588,  34590,  34609,  34611,  34613,  34635,  34637,  34945,  34947,  34949,  34971,  35282,  35284
  35286,  35308,  35329,  35331,  35333,  35355,  35666,  35668,  35670,  35692,  35713,  35715,  35717,  35739,  36050,  36052
  36054,  36076,  36097,  36099,  36101,  36123,  36434,  36436,  36438,  36460,  36481,  36483,  36485,  36507,  36818,  36820
  36822,  36844,  36916,  36918,  36940,  36942,  37155,  37157,  37179,  37181,  37300,  37302,  37324,  37326,  37539,  37541
  37563,  37565,  37684,  37686,  37708,  37710,  37923,  37925,  37947,  37949,  38068,  38070,  38092,  38094,  38307,  38309
  38331,  38333,  38452,  38454,  38476,  38478,  38691,  38693,  38715,  38717,  38836,  38838,  38860,  38862,  39075,  39077
  39099,  39101,  39220,  39222,  39244,  39246,  39459,  39461,  39483,  39485,  39604,  39606,  39628,  39630,  39843,  39845
  39867,  39869,  39988,  39990,  40012,  40014,  40227,  40229,  40251,  40253,  40372,  40374,  40396,  40398,  40611,  40613
  40635,  40637,  40707,  40709,  40731,  40733,  41044,  41046,  41068,  41070,  41091,  41093,  41115,  41117,  41428,  41430
  41452,  41454,  41475,  41477,  41499,  41501,  41812,  41814,  41836,  41838,  41859,  41861,  41883,  42196,  42198,  42220
  42241,  42243,  42245,  42247,  42249,  42251,  42259,  42261,  42263,  42271,  42273,  42275,  42283,  42285,  42287,  42303
  42305,  42309,  42311,  42321,  42323,  42333,  42335,  42345,  42347,  42969,  42971,  42981,  42983,  42993,  42995,  43005
  43007,  43017,  43019,  43029,  43031,  43041,  43043,  43053,  43055,  43065,  43067,  43077,  43079,  43321,  43323,  43325
  43327,  43329,  43331,  43339,  43341,  43343,  43351,  43353,  43355,  43363,  43365,  43367,  43383,  43385,  43389,  43391
  43401,  43403,  43413,  43415,  43425,  43427,  43927,  43929,  43931,  43939,  43941,  43943,  43951,  43953,  43955,  43963
  43965,  43967,  43975,  43977,  43979,  43989,  43991,  44001,  44003,  44013,  44015,  44025,  44027,  44037,  44039,  44161
  44163,  44165,  44167,  44169,  44171,  44179,  44181,  44183,  44191,  44193,  44195,  44203,  44205,  44207,  44223,  44225
  44229,  44231,  44241,  44243,  44253,  44255,  44265,  44267,  45001,  45003,  45005,  45007,  45009,  45011,  45019,  45021
  45023,  45031,  45033,  45035,  45043,  45045,  45047,  45063,  45069,  45081,  45093,  45105,  46082,  46084,  46086,  46088
  46090,  46092,  46100,  46102,  46104,  46112,  46114,  46116,  46124,  46126,  46128,  46144,  46146,  46150,  46152,  46162
** ... 327 like lines cut
*Elset, elset=_REBARS_S3, internal
  9001,  9002,  9011,  9012,  9021,  9022,  9031,  9032,  9041,  9042,  9051,  9052,  9061,  9062,  9071,  9072
  9121,  9122,  9131,  9132,  9141,  9142,  9151,  9152,  9201,  9202,  9211,  9212,  9221,  9222,  9231,  9232
  9521,  9522,  9531,  9532,  9541,  9542,  9551,  9552,  9601,  9602,  9611,  9612,  9621,  9622,  9631,  9632
 10001, 10002, 10011, 10012, 10021, 10022, 10031, 10032, 10041, 10042, 10051, 10052, 10061, 10062, 10071, 10072
 10081, 10082, 10091, 10092, 10101, 10102, 10111, 10112, 10121, 10122, 10131, 10132, 10141, 10142, 10151, 10152
 10161, 10162, 10171, 10172, 10181, 10182, 10191, 10192, 10201, 10202, 10211, 10212, 10221, 10222, 10231, 10232
*Elset, elset=_REBARS_S4, internal
 7049, 7050, 7059, 7060, 7069, 7070, 7079, 7080, 7209, 7210, 7219, 7220, 7229, 7230, 7239, 7240
 7249, 7250, 7259, 7260, 7269, 7270, 7279, 7280, 7289, 7290, 7299, 7300, 7309, 7310, 7319, 7320
 7369, 7370, 7379, 7380, 7389, 7390, 7399, 7400, 7489, 7490, 7499, 7500, 7509, 7510, 7519, 7520
 7689, 7690, 7699, 7700, 7709, 7710, 7719, 7720, 7809, 7810, 7819, 7820, 7829, 7830, 7839, 7840
 7889, 7890, 7899, 7900, 7909, 7910, 7919, 7920, 7929, 7930, 7939, 7940, 7949, 7950, 7959, 7960
 8009, 8010, 8019, 8020, 8029, 8030, 8039, 8040, 8049, 8050, 8059, 8060, 8069, 8070, 8079, 8080
 8329, 8330, 8339, 8340, 8349, 8350, 8359, 8360, 8369, 8370, 8379, 8380, 8389, 8390, 8399, 8400
 8409, 8410, 8419, 8420, 8429, 8430, 8439, 8440, 8449, 8450, 8459, 8460, 8469, 8470, 8479, 8480
 8489, 8490, 8499, 8500, 8509, 8510, 8519, 8520, 8529, 8530, 8539, 8540, 8549, 8550, 8559, 8560
 8569, 8570, 8579, 8580, 8589, 8590, 8599, 8600, 8609, 8610, 8619, 8620, 8629, 8630, 8639, 8640
 8649, 8650, 8659, 8660, 8669, 8670, 8679, 8680, 8689, 8690, 8699, 8700, 8709, 8710, 8719, 8720
*Elset, elset=_REBARS_S5, internal
  8729,  8730,  8739,  8740,  8749,  8750,  8759,  8760,  8769,  8770,  8779,  8780,  8789,  8790,  8799,  8800
  8809,  8810,  8819,  8820,  8829,  8830,  8839,  8840,  8849,  8850,  8859,  8860,  8869,  8870,  8879,  8880
  8889,  8890,  8899,  8900,  8909,  8910,  8919,  8920,  8929,  8930,  8939,  8940,  8949,  8950,  8959,  8960
  8969,  8970,  8979,  8980,  8989,  8990,  8999,  9000,  9089,  9090,  9099,  9100,  9109,  9110,  9119,  9120
  9169,  9170,  9179,  9180,  9189,  9190,  9199,  9200,  9249,  9250,  9259,  9260,  9269,  9270,  9279,  9280
  9289,  9290,  9299,  9300,  9309,  9310,  9319,  9320,  9329,  9330,  9339,  9340,  9349,  9350,  9359,  9360
  9369,  9370,  9379,  9380,  9389,  9390,  9399,  9400,  9409,  9410,  9419,  9420,  9429,  9430,  9439,  9440
  9449,  9450,  9459,  9460,  9469,  9470,  9479,  9480,  9489,  9490,  9499,  9500,  9509,  9510,  9519,  9520
  9569,  9570,  9579,  9580,  9589,  9590,  9599,  9600,  9649,  9650,  9659,  9660,  9669,  9670,  9679,  9680
  9689,  9690,  9699,  9700,  9709,  9710,  9719,  9720,  9729,  9730,  9739,  9740,  9749,  9750,  9759,  9760
  9769,  9770,  9779,  9780,  9789,  9790,  9799,  9800,  9809,  9810,  9819,  9820,  9829,  9830,  9839,  9840
  9849,  9850,  9859,  9860,  9869,  9870,  9879,  9880,  9889,  9890,  9899,  9900,  9909,  9910,  9919,  9920
  9929,  9930,  9939,  9940,  9949,  9950,  9959,  9960,  9969,  9970,  9979,  9980,  9989,  9990,  9999, 10000
*Elset, elset=_REBARS_S6, internal
 7081, 7082, 7091, 7092, 7101, 7102, 7111, 7112, 7121, 7122, 7131, 7132, 7141, 7142, 7151, 7152
 7161, 7162, 7171, 7172, 7181, 7182, 7191, 7192, 7321, 7322, 7331, 7332, 7341, 7342, 7351, 7352
 7401, 7402, 7411, 7412, 7421, 7422, 7431, 7432, 7441, 7442, 7451, 7452, 7461, 7462, 7471, 7472
 7521, 7522, 7531, 7532, 7541, 7542, 7551, 7552, 7561, 7562, 7571, 7572, 7581, 7582, 7591, 7592
 7601, 7602, 7611, 7612, 7621, 7622, 7631, 7632, 7641, 7642, 7651, 7652, 7661, 7662, 7671, 7672
 7721, 7722, 7731, 7732, 7741, 7742, 7751, 7752, 7761, 7762, 7771, 7772, 7781, 7782, 7791, 7792
 7841, 7842, 7851, 7852, 7861, 7862, 7871, 7872, 7961, 7962, 7971, 7972, 7981, 7982, 7991, 7992
 8081, 8082, 8091, 8092, 8101, 8102, 8111, 8112, 8121, 8122, 8131, 8132, 8141, 8142, 8151, 8152
 8161, 8162, 8171, 8172, 8181, 8182, 8191, 8192, 8201, 8202, 8211, 8212, 8221, 8222, 8231, 8232
 8241, 8242, 8251, 8252, 8261, 8262, 8271, 8272, 8281, 8282, 8291, 8292, 8301, 8302, 8311, 8312
*Elset, elset=_REBARS_S3_1, internal
  9001,  9002,  9011,  9012,  9021,  9022,  9031,  9032,  9041,  9042,  9051,  9052,  9061,  9062,  9071,  9072
  9121,  9122,  9131,  9132,  9141,  9142,  9151,  9152,  9201,  9202,  9211,  9212,  9221,  9222,  9231,  9232
  9521,  9522,  9531,  9532,  9541,  9542,  9551,  9552,  9601,  9602,  9611,  9612,  9621,  9622,  9631,  9632
 10001, 10002, 10011, 10012, 10021, 10022, 10031, 10032, 10041, 10042, 10051, 10052, 10061, 10062, 10071, 10072
 10081, 10082, 10091, 10092, 10101, 10102, 10111, 10112, 10121, 10122, 10131, 10132, 10141, 10142, 10151, 10152
 10161, 10162, 10171, 10172, 10181, 10182, 10191, 10192, 10201, 10202, 10211, 10212, 10221, 10222, 10231, 10232
*Elset, elset=_REBARS_S4_1, internal
 7049, 7050, 7059, 7060, 7069, 7070, 7079, 7080, 7209, 7210, 7219, 7220, 7229, 7230, 7239, 7240
 7249, 7250, 7259, 7260, 7269, 7270, 7279, 7280, 7289, 7290, 7299, 7300, 7309, 7310, 7319, 7320
 7369, 7370, 7379, 7380, 7389, 7390, 7399, 7400, 7489, 7490, 7499, 7500, 7509, 7510, 7519, 7520
 7689, 7690, 7699, 7700, 7709, 7710, 7719, 7720, 7809, 7810, 7819, 7820, 7829, 7830, 7839, 7840
 7889, 7890, 7899, 7900, 7909, 7910, 7919, 7920, 7929, 7930, 7939, 7940, 7949, 7950, 7959, 7960
 8009, 8010, 8019, 8020, 8029, 8030, 8039, 8040, 8049, 8050, 8059, 8060, 8069, 8070, 8079, 8080
 8329, 8330, 8339, 8340, 8349, 8350, 8359, 8360, 8369, 8370, 8379, 8380, 8389, 8390, 8399, 8400
 8409, 8410, 8419, 8420, 8429, 8430, 8439, 8440, 8449, 8450, 8459, 8460, 8469, 8470, 8479, 8480
 8489, 8490, 8499, 8500, 8509, 8510, 8519, 8520, 8529, 8530, 8539, 8540, 8549, 8550, 8559, 8560
 8569, 8570, 8579, 8580, 8589, 8590, 8599, 8600, 8609, 8610, 8619, 8620, 8629, 8630, 8639, 8640
 8649, 8650, 8659, 8660, 8669, 8670, 8679, 8680, 8689, 8690, 8699, 8700, 8709, 8710, 8719, 8720
*Elset, elset=_REBARS_S6_1, internal
 7081, 7082, 7091, 7092, 7101, 7102, 7111, 7112, 7121, 7122, 7131, 7132, 7141, 7142, 7151, 7152
 7161, 7162, 7171, 7172, 7181, 7182, 7191, 7192, 7321, 7322, 7331, 7332, 7341, 7342, 7351, 7352
 7401, 7402, 7411, 7412, 7421, 7422, 7431, 7432, 7441, 7442, 7451, 7452, 7461, 7462, 7471, 7472
 7521, 7522, 7531, 7532, 7541, 7542, 7551, 7552, 7561, 7562, 7571, 7572, 7581, 7582, 7591, 7592
 7601, 7602, 7611, 7612, 7621, 7622, 7631, 7632, 7641, 7642, 7651, 7652, 7661, 7662, 7671, 7672
 7721, 7722, 7731, 7732, 7741, 7742, 7751, 7752, 7761, 7762, 7771, 7772, 7781, 7782, 7791, 7792
 7841, 7842, 7851, 7852, 7861, 7862, 7871, 7872, 7961, 7962, 7971, 7972, 7981, 7982, 7991, 7992
 8081, 8082, 8091, 8092, 8101, 8102, 8111, 8112, 8121, 8122, 8131, 8132, 8141, 8142, 8151, 8152
 8161, 8162, 8171, 8172, 8181, 8182, 8191, 8192, 8201, 8202, 8211, 8212, 8221, 8222, 8231, 8232
 8241, 8242, 8251, 8252, 8261, 8262, 8271, 8272, 8281, 8282, 8291, 8292, 8301, 8302, 8311, 8312
*Elset, elset=_REBARS_S5_1, internal
  8729,  8730,  8739,  8740,  8749,  8750,  8759,  8760,  8769,  8770,  8779,  8780,  8789,  8790,  8799,  8800
  8809,  8810,  8819,  8820,  8829,  8830,  8839,  8840,  8849,  8850,  8859,  8860,  8869,  8870,  8879,  8880
  8889,  8890,  8899,  8900,  8909,  8910,  8919,  8920,  8929,  8930,  8939,  8940,  8949,  8950,  8959,  8960
  8969,  8970,  8979,  8980,  8989,  8990,  8999,  9000,  9089,  9090,  9099,  9100,  9109,  9110,  9119,  9120
  9169,  9170,  9179,  9180,  9189,  9190,  9199,  9200,  9249,  9250,  9259,  9260,  9269,  9270,  9279,  9280
  9289,  9290,  9299,  9300,  9309,  9310,  9319,  9320,  9329,  9330,  9339,  9340,  9349,  9350,  9359,  9360
  9369,  9370,  9379,  9380,  9389,  9390,  9399,  9400,  9409,  9410,  9419,  9420,  9429,  9430,  9439,  9440
  9449,  9450,  9459,  9460,  9469,  9470,  9479,  9480,  9489,  9490,  9499,  9500,  9509,  9510,  9519,  9520
  9569,  9570,  9579,  9580,  9589,  9590,  9599,  9600,  9649,  9650,  9659,  9660,  9669,  9670,  9679,  9680
  9689,  9690,  9699,  9700,  9709,  9710,  9719,  9720,  9729,  9730,  9739,  9740,  9749,  9750,  9759,  9760
  9769,  9770,  9779,  9780,  9789,  9790,  9799,  9800,  9809,  9810,  9819,  9820,  9829,  9830,  9839,  9840
  9849,  9850,  9859,  9860,  9869,  9870,  9879,  9880,  9889,  9890,  9899,  9900,  9909,  9910,  9919,  9920
  9929,  9930,  9939,  9940,  9949,  9950,  9959,  9960,  9969,  9970,  9979,  9980,  9989,  9990,  9999, 10000
*Elset, elset=_REBARS_S3_2, internal
  9001,  9002,  9011,  9012,  9021,  9022,  9031,  9032,  9041,  9042,  9051,  9052,  9061,  9062,  9071,  9072
  9121,  9122,  9131,  9132,  9141,  9142,  9151,  9152,  9201,  9202,  9211,  9212,  9221,  9222,  9231,  9232
  9521,  9522,  9531,  9532,  9541,  9542,  9551,  9552,  9601,  9602,  9611,  9612,  9621,  9622,  9631,  9632
 10001, 10002, 10011, 10012, 10021, 10022, 10031, 10032, 10041, 10042, 10051, 10052, 10061, 10062, 10071, 10072
 10081, 10082, 10091, 10092, 10101, 10102, 10111, 10112, 10121, 10122, 10131, 10132, 10141, 10142, 10151, 10152
 10161, 10162, 10171, 10172, 10181, 10182, 10191, 10192, 10201, 10202, 10211, 10212, 10221, 10222, 10231, 10232
*Elset, elset=_REBARS_S4_2, internal
 7049, 7050, 7059, 7060, 7069, 7070, 7079, 7080, 7209, 7210, 7219, 7220, 7229, 7230, 7239, 7240
 7249, 7250, 7259, 7260, 7269, 7270, 7279, 7280, 7289, 7290, 7299, 7300, 7309, 7310, 7319, 7320
 7369, 7370, 7379, 7380, 7389, 7390, 7399, 7400, 7489, 7490, 7499, 7500, 7509, 7510, 7519, 7520
 7689, 7690, 7699, 7700, 7709, 7710, 7719, 7720, 7809, 7810, 7819, 7820, 7829, 7830, 7839, 7840
 7889, 7890, 7899, 7900, 7909, 7910, 7919, 7920, 7929, 7930, 7939, 7940, 7949, 7950, 7959, 7960
 8009, 8010, 8019, 8020, 8029, 8030, 8039, 8040, 8049, 8050, 8059, 8060, 8069, 8070, 8079, 8080
 8329, 8330, 8339, 8340, 8349, 8350, 8359, 8360, 8369, 8370, 8379, 8380, 8389, 8390, 8399, 8400
 8409, 8410, 8419, 8420, 8429, 8430, 8439, 8440, 8449, 8450, 8459, 8460, 8469, 8470, 8479, 8480
 8489, 8490, 8499, 8500, 8509, 8510, 8519, 8520, 8529, 8530, 8539, 8540, 8549, 8550, 8559, 8560
 8569, 8570, 8579, 8580, 8589, 8590, 8599, 8600, 8609, 8610, 8619, 8620, 8629, 8630, 8639, 8640
 8649, 8650, 8659, 8660, 8669, 8670, 8679, 8680, 8689, 8690, 8699, 8700, 8709, 8710, 8719, 8720
*Elset, elset=_REBARS_S6_2, internal
 7081, 7082, 7091, 7092, 7101, 7102, 7111, 7112, 7121, 7122, 7131, 7132, 7141, 7142, 7151, 7152
 7161, 7162, 7171, 7172, 7181, 7182, 7191, 7192, 7321, 7322, 7331, 7332, 7341, 7342, 7351, 7352
 7401, 7402, 7411, 7412, 7421, 7422, 7431, 7432, 7441, 7442, 7451, 7452, 7461, 7462, 7471, 7472
 7521, 7522, 7531, 7532, 7541, 7542, 7551, 7552, 7561, 7562, 7571, 7572, 7581, 7582, 7591, 7592
 7601, 7602, 7611, 7612, 7621, 7622, 7631, 7632, 7641, 7642, 7651, 7652, 7661, 7662, 7671, 7672
 7721, 7722, 7731, 7732, 7741, 7742, 7751, 7752, 7761, 7762, 7771, 7772, 7781, 7782, 7791, 7792
 7841, 7842, 7851, 7852, 7861, 7862, 7871, 7872, 7961, 7962, 7971, 7972, 7981, 7982, 7991, 7992
 8081, 8082, 8091, 8092, 8101, 8102, 8111, 8112, 8121, 8122, 8131, 8132, 8141, 8142, 8151, 8152
 8161, 8162, 8171, 8172, 8181, 8182, 8191, 8192, 8201, 8202, 8211, 8212, 8221, 8222, 8231, 8232
 8241, 8242, 8251, 8252, 8261, 8262, 8271, 8272, 8281, 8282, 8291, 8292, 8301, 8302, 8311, 8312
*Elset, elset=_REBARS_S5_2, internal
  8729,  8730,  8739,  8740,  8749,  8750,  8759,  8760,  8769,  8770,  8779,  8780,  8789,  8790,  8799,  8800
  8809,  8810,  8819,  8820,  8829,  8830,  8839,  8840,  8849,  8850,  8859,  8860,  8869,  8870,  8879,  8880
  8889,  8890,  8899,  8900,  8909,  8910,  8919,  8920,  8929,  8930,  8939,  8940,  8949,  8950,  8959,  8960
  8969,  8970,  8979,  8980,  8989,  8990,  8999,  9000,  9089,  9090,  9099,  9100,  9109,  9110,  9119,  9120
  9169,  9170,  9179,  9180,  9189,  9190,  9199,  9200,  9249,  9250,  9259,  9260,  9269,  9270,  9279,  9280
  9289,  9290,  9299,  9300,  9309,  9310,  9319,  9320,  9329,  9330,  9339,  9340,  9349,  9350,  9359,  9360
  9369,  9370,  9379,  9380,  9389,  9390,  9399,  9400,  9409,  9410,  9419,  9420,  9429,  9430,  9439,  9440
  9449,  9450,  9459,  9460,  9469,  9470,  9479,  9480,  9489,  9490,  9499,  9500,  9509,  9510,  9519,  9520
  9569,  9570,  9579,  9580,  9589,  9590,  9599,  9600,  9649,  9650,  9659,  9660,  9669,  9670,  9679,  9680
  9689,  9690,  9699,  9700,  9709,  9710,  9719,  9720,  9729,  9730,  9739,  9740,  9749,  9750,  9759,  9760
  9769,  9770,  9779,  9780,  9789,  9790,  9799,  9800,  9809,  9810,  9819,  9820,  9829,  9830,  9839,  9840
  9849,  9850,  9859,  9860,  9869,  9870,  9879,  9880,  9889,  9890,  9899,  9900,  9909,  9910,  9919,  9920
  9929,  9930,  9939,  9940,  9949,  9950,  9959,  9960,  9969,  9970,  9979,  9980,  9989,  9990,  9999, 10000
*Elset, elset=_REBARS_S3_3, internal
  9001,  9002,  9011,  9012,  9021,  9022,  9031,  9032,  9041,  9042,  9051,  9052,  9061,  9062,  9071,  9072
  9121,  9122,  9131,  9132,  9141,  9142,  9151,  9152,  9201,  9202,  9211,  9212,  9221,  9222,  9231,  9232
  9521,  9522,  9531,  9532,  9541,  9542,  9551,  9552,  9601,  9602,  9611,  9612,  9621,  9622,  9631,  9632
 10001, 10002, 10011, 10012, 10021, 10022, 10031, 10032, 10041, 10042, 10051, 10052, 10061, 10062, 10071, 10072
 10081, 10082, 10091, 10092, 10101, 10102, 10111, 10112, 10121, 10122, 10131, 10132, 10141, 10142, 10151, 10152
 10161, 10162, 10171, 10172, 10181, 10182, 10191, 10192, 10201, 10202, 10211, 10212, 10221, 10222, 10231, 10232
*Elset, elset=_REBARS_S4_3, internal
 7049, 7050, 7059, 7060, 7069, 7070, 7079, 7080, 7209, 7210, 7219, 7220, 7229, 7230, 7239, 7240
 7249, 7250, 7259, 7260, 7269, 7270, 7279, 7280, 7289, 7290, 7299, 7300, 7309, 7310, 7319, 7320
 7369, 7370, 7379, 7380, 7389, 7390, 7399, 7400, 7489, 7490, 7499, 7500, 7509, 7510, 7519, 7520
 7689, 7690, 7699, 7700, 7709, 7710, 7719, 7720, 7809, 7810, 7819, 7820, 7829, 7830, 7839, 7840
 7889, 7890, 7899, 7900, 7909, 7910, 7919, 7920, 7929, 7930, 7939, 7940, 7949, 7950, 7959, 7960
 8009, 8010, 8019, 8020, 8029, 8030, 8039, 8040, 8049, 8050, 8059, 8060, 8069, 8070, 8079, 8080
 8329, 8330, 8339, 8340, 8349, 8350, 8359, 8360, 8369, 8370, 8379, 8380, 8389, 8390, 8399, 8400
 8409, 8410, 8419, 8420, 8429, 8430, 8439, 8440, 8449, 8450, 8459, 8460, 8469, 8470, 8479, 8480
 8489, 8490, 8499, 8500, 8509, 8510, 8519, 8520, 8529, 8530, 8539, 8540, 8549, 8550, 8559, 8560
 8569, 8570, 8579, 8580, 8589, 8590, 8599, 8600, 8609, 8610, 8619, 8620, 8629, 8630, 8639, 8640
 8649, 8650, 8659, 8660, 8669, 8670, 8679, 8680, 8689, 8690, 8699, 8700, 8709, 8710, 8719, 8720
*Elset, elset=_REBARS_S6_3, internal
 7081, 7082, 7091, 7092, 7101, 7102, 7111, 7112, 7121, 7122, 7131, 7132, 7141, 7142, 7151, 7152
 7161, 7162, 7171, 7172, 7181, 7182, 7191, 7192, 7321, 7322, 7331, 7332, 7341, 7342, 7351, 7352
 7401, 7402, 7411, 7412, 7421, 7422, 7431, 7432, 7441, 7442, 7451, 7452, 7461, 7462, 7471, 7472
 7521, 7522, 7531, 7532, 7541, 7542, 7551, 7552, 7561, 7562, 7571, 7572, 7581, 7582, 7591, 7592
 7601, 7602, 7611, 7612, 7621, 7622, 7631, 7632, 7641, 7642, 7651, 7652, 7661, 7662, 7671, 7672
 7721, 7722, 7731, 7732, 7741, 7742, 7751, 7752, 7761, 7762, 7771, 7772, 7781, 7782, 7791, 7792
 7841, 7842, 7851, 7852, 7861, 7862, 7871, 7872, 7961, 7962, 7971, 7972, 7981, 7982, 7991, 7992
 8081, 8082, 8091, 8092, 8101, 8102, 8111, 8112, 8121, 8122, 8131, 8132, 8141, 8142, 8151, 8152
 8161, 8162, 8171, 8172, 8181, 8182, 8191, 8192, 8201, 8202, 8211, 8212, 8221, 8222, 8231, 8232
 8241, 8242, 8251, 8252, 8261, 8262, 8271, 8272, 8281, 8282, 8291, 8292, 8301, 8302, 8311, 8312
*Elset, elset=_REBARS_S5_3, internal
  8729,  8730,  8739,  8740,  8749,  8750,  8759,  8760,  8769,  8770,  8779,  8780,  8789,  8790,  8799,  8800
  8809,  8810,  8819,  8820,  8829,  8830,  8839,  8840,  8849,  8850,  8859,  8860,  8869,  8870,  8879,  8880
  8889,  8890,  8899,  8900,  8909,  8910,  8919,  8920,  8929,  8930,  8939,  8940,  8949,  8950,  8959,  8960
  8969,  8970,  8979,  8980,  8989,  8990,  8999,  9000,  9089,  9090,  9099,  9100,  9109,  9110,  9119,  9120
  9169,  9170,  9179,  9180,  9189,  9190,  9199,  9200,  9249,  9250,  9259,  9260,  9269,  9270,  9279,  9280
  9289,  9290,  9299,  9300,  9309,  9310,  9319,  9320,  9329,  9330,  9339,  9340,  9349,  9350,  9359,  9360
  9369,  9370,  9379,  9380,  9389,  9390,  9399,  9400,  9409,  9410,  9419,  9420,  9429,  9430,  9439,  9440
  9449,  9450,  9459,  9460,  9469,  9470,  9479,  9480,  9489,  9490,  9499,  9500,  9509,  9510,  9519,  9520
  9569,  9570,  9579,  9580,  9589,  9590,  9599,  9600,  9649,  9650,  9659,  9660,  9669,  9670,  9679,  9680
  9689,  9690,  9699,  9700,  9709,  9710,  9719,  9720,  9729,  9730,  9739,  9740,  9749,  9750,  9759,  9760
  9769,  9770,  9779,  9780,  9789,  9790,  9799,  9800,  9809,  9810,  9819,  9820,  9829,  9830,  9839,  9840
  9849,  9850,  9859,  9860,  9869,  9870,  9879,  9880,  9889,  9890,  9899,  9900,  9909,  9910,  9919,  9920
  9929,  9930,  9939,  9940,  9949,  9950,  9959,  9960,  9969,  9970,  9979,  9980,  9989,  9990,  9999, 10000
*Elset, elset=_REBARS_S3_4, internal
  9001,  9002,  9011,  9012,  9021,  9022,  9031,  9032,  9041,  9042,  9051,  9052,  9061,  9062,  9071,  9072
  9121,  9122,  9131,  9132,  9141,  9142,  9151,  9152,  9201,  9202,  9211,  9212,  9221,  9222,  9231,  9232
  9521,  9522,  9531,  9532,  9541,  9542,  9551,  9552,  9601,  9602,  9611,  9612,  9621,  9622,  9631,  9632
 10001, 10002, 10011, 10012, 10021, 10022, 10031, 10032, 10041, 10042, 10051, 10052, 10061, 10062, 10071, 10072
 10081, 10082, 10091, 10092, 10101, 10102, 10111, 10112, 10121, 10122, 10131, 10132, 10141, 10142, 10151, 10152
 10161, 10162, 10171, 10172, 10181, 10182, 10191, 10192, 10201, 10202, 10211, 10212, 10221, 10222, 10231, 10232
*Elset, elset=_REBARS_S4_4, internal
 7049, 7050, 7059, 7060, 7069, 7070, 7079, 7080, 7209, 7210, 7219, 7220, 7229, 7230, 7239, 7240
 7249, 7250, 7259, 7260, 7269, 7270, 7279, 7280, 7289, 7290, 7299, 7300, 7309, 7310, 7319, 7320
 7369, 7370, 7379, 7380, 7389, 7390, 7399, 7400, 7489, 7490, 7499, 7500, 7509, 7510, 7519, 7520
 7689, 7690, 7699, 7700, 7709, 7710, 7719, 7720, 7809, 7810, 7819, 7820, 7829, 7830, 7839, 7840
 7889, 7890, 7899, 7900, 7909, 7910, 7919, 7920, 7929, 7930, 7939, 7940, 7949, 7950, 7959, 7960
 8009, 8010, 8019, 8020, 8029, 8030, 8039, 8040, 8049, 8050, 8059, 8060, 8069, 8070, 8079, 8080
 8329, 8330, 8339, 8340, 8349, 8350, 8359, 8360, 8369, 8370, 8379, 8380, 8389, 8390, 8399, 8400
 8409, 8410, 8419, 8420, 8429, 8430, 8439, 8440, 8449, 8450, 8459, 8460, 8469, 8470, 8479, 8480
 8489, 8490, 8499, 8500, 8509, 8510, 8519, 8520, 8529, 8530, 8539, 8540, 8549, 8550, 8559, 8560
 8569, 8570, 8579, 8580, 8589, 8590, 8599, 8600, 8609, 8610, 8619, 8620, 8629, 8630, 8639, 8640
 8649, 8650, 8659, 8660, 8669, 8670, 8679, 8680, 8689, 8690, 8699, 8700, 8709, 8710, 8719, 8720
*Elset, elset=_REBARS_S6_4, internal
 7081, 7082, 7091, 7092, 7101, 7102, 7111, 7112, 7121, 7122, 7131, 7132, 7141, 7142, 7151, 7152
 7161, 7162, 7171, 7172, 7181, 7182, 7191, 7192, 7321, 7322, 7331, 7332, 7341, 7342, 7351, 7352
 7401, 7402, 7411, 7412, 7421, 7422, 7431, 7432, 7441, 7442, 7451, 7452, 7461, 7462, 7471, 7472
 7521, 7522, 7531, 7532, 7541, 7542, 7551, 7552, 7561, 7562, 7571, 7572, 7581, 7582, 7591, 7592
 7601, 7602, 7611, 7612, 7621, 7622, 7631, 7632, 7641, 7642, 7651, 7652, 7661, 7662, 7671, 7672
 7721, 7722, 7731, 7732, 7741, 7742, 7751, 7752, 7761, 7762, 7771, 7772, 7781, 7782, 7791, 7792
 7841, 7842, 7851, 7852, 7861, 7862, 7871, 7872, 7961, 7962, 7971, 7972, 7981, 7982, 7991, 7992
 8081, 8082, 8091, 8092, 8101, 8102, 8111, 8112, 8121, 8122, 8131, 8132, 8141, 8142, 8151, 8152
 8161, 8162, 8171, 8172, 8181, 8182, 8191, 8192, 8201, 8202, 8211, 8212, 8221, 8222, 8231, 8232
 8241, 8242, 8251, 8252, 8261, 8262, 8271, 8272, 8281, 8282, 8291, 8292, 8301, 8302, 8311, 8312
*Elset, elset=_REBARS_S5_4, internal
  8729,  8730,  8739,  8740,  8749,  8750,  8759,  8760,  8769,  8770,  8779,  8780,  8789,  8790,  8799,  8800
  8809,  8810,  8819,  8820,  8829,  8830,  8839,  8840,  8849,  8850,  8859,  8860,  8869,  8870,  8879,  8880
  8889,  8890,  8899,  8900,  8909,  8910,  8919,  8920,  8929,  8930,  8939,  8940,  8949,  8950,  8959,  8960
  8969,  8970,  8979,  8980,  8989,  8990,  8999,  9000,  9089,  9090,  9099,  9100,  9109,  9110,  9119,  9120
  9169,  9170,  9179,  9180,  9189,  9190,  9199,  9200,  9249,  9250,  9259,  9260,  9269,  9270,  9279,  9280
  9289,  9290,  9299,  9300,  9309,  9310,  9319,  9320,  9329,  9330,  9339,  9340,  9349,  9350,  9359,  9360
  9369,  9370,  9379,  9380,  9389,  9390,  9399,  9400,  9409,  9410,  9419,  9420,  9429,  9430,  9439,  9440
  9449,  9450,  9459,  9460,  9469,  9470,  9479,  9480,  9489,  9490,  9499,  9500,  9509,  9510,  9519,  9520
  9569,  9570,  9579,  9580,  9589,  9590,  9599,  9600,  9649,  9650,  9659,  9660,  9669,  9670,  9679,  9680
  9689,  9690,  9699,  9700,  9709,  9710,  9719,  9720,  9729,  9730,  9739,  9740,  9749,  9750,  9759,  9760
  9769,  9770,  9779,  9780,  9789,  9790,  9799,  9800,  9809,  9810,  9819,  9820,  9829,  9830,  9839,  9840
  9849,  9850,  9859,  9860,  9869,  9870,  9879,  9880,  9889,  9890,  9899,  9900,  9909,  9910,  9919,  9920
  9929,  9930,  9939,  9940,  9949,  9950,  9959,  9960,  9969,  9970,  9979,  9980,  9989,  9990,  9999, 10000
*Surface, type=ELEMENT, name=REBARS
_REBARS_S3_4, S3
_REBARS_S4_4, S4
_REBARS_S6_4, S6
_REBARS_S5_4, S5
** Section: Section-4-NP-Z1
*Solid Section, elset=NP-Z1, material=NP
,
** Section: Section-5-NP-Z2
*Solid Section, elset=NP-Z2, material=NP
,
** Section: Section-6-NP-Z3
*Solid Section, elset=NP-Z3, material=NP
,
** Section: Section-7-NP-Z4
*Solid Section, elset=NP-Z4, material=NP
,
** Section: Section-8-NP-Z5
*Solid Section, elset=NP-Z5, material=NP
,
** Section: Section-9-NP
*Solid Section, elset=NP, material=NP
,
*End Part
**  
**
** ASSEMBLY
**
*Assembly, name=Assembly
**  
*Instance, name=PART-1-1, part=PART-1
*End Instance
**  
*End Assembly
*Amplitude, name=AMP-1
             0.,              1.,          28790.,              1.
*Amplitude, name=AMP-2
             0.,              1.,          57590.,              1.
** 
** MATERIALS
** 
*Material, name=AF
*Depvar
      8,
*User Defined Field
*User Material, constants=6
 0.84, 0.704,  0.15,  0.18,  0.65,    0.
*Material, name=AF-Z1
*Depvar
      8,
*User Defined Field
*User Material, constants=6
 0.84, 0.704,  0.15,  0.18,  0.65,    0.
*Material, name=AF-Z2
*Depvar
      8,
*User Defined Field
*User Material, constants=6
 0.84, 0.704,  0.15,  0.18,  0.65,    0.
*Material, name=BEP
*Elastic
10000., 0.3
*Permeability, specific=1.
26800., 0.05
*Material, name=CEP
*Depvar
      2,
*Elastic
20., 0.17
*User Defined Field
*Material, name=COLLAGEN
*Depvar
      1,
*User Material, constants=5
4000., 2.8, 11., 6.1,  8.
*Material, name=NP
*Depvar
      8,
*User Defined Field
*User Material, constants=6
1., 0.745,  0.15,  0.29,  0.15,    0.
*Material, name=NP-Z1
*Depvar
      8,
*User Defined Field
*User Material, constants=6
1., 0.745,  0.15,  0.29,  0.15,    0.
*Material, name=NP-Z2
*Depvar
      8,
*User Defined Field
*User Material, constants=6
1., 0.745,  0.15,  0.29,  0.15,    0.
*Material, name=NP-Z3
*Depvar
      8,
*User Defined Field
*User Material, constants=6
1., 0.745,  0.15,  0.29,  0.15,    0.
*Material, name=NP-Z4
*Depvar
      8,
*User Defined Field
*User Material, constants=6
1., 0.745,  0.15,  0.29,  0.15,    0.
*Material, name=NP-Z5
*Depvar
      8,
*User Defined Field
*User Material, constants=6
1., 0.745,  0.15,  0.29,  0.15,    0.
** 
** BOUNDARY CONDITIONS
** 
** Name: Disp-BC-1 Type: Symmetry/Antisymmetry/Encastre
*Boundary
PART-1-1.ND-BEP-F, ENCASTRE
** Name: Por-BC-1 Type: Pore pressure
*Boundary
PART-1-1.ND-SURF_PP__PP__PP__PP_, 8, 8
** 
** PREDEFINED FIELDS
** 
** Name: Field-1   Type: Field
*Initial Conditions, type=FIELD, variable=1
PART-1-1.ND-CEP, 0.0025
** Name: Field-2   Type: Field
*Initial Conditions, type=FIELD, variable=1
PART-1-1.ND-AF, 0.00016
** Name: Field-3   Type: Field
*Initial Conditions, type=FIELD, variable=1
PART-1-1.ND-NP, 0.00016
** Name: Field-4   Type: Field
*Initial Conditions, type=FIELD, variable=2
PART-1-1.ND-CEP, 8.5
** Name: Field-5   Type: Field
*Initial Conditions, type=FIELD, variable=2
PART-1-1.ND-AF, 1.2
** Name: Field-6   Type: Field
*Initial Conditions, type=FIELD, variable=2
PART-1-1.ND-NP, 1.2
** Name: Field-7   Type: Field
*Initial Conditions, type=FIELD, variable=3
PART-1-1.ND-CEP, 4.
** Name: Field-8   Type: Field
*Initial Conditions, type=FIELD, variable=3
PART-1-1.ND-AF, 3.
** Name: Field-9   Type: Field
*Initial Conditions, type=FIELD, variable=3
PART-1-1.ND-NP, 4.
** Name: Field-10   Type: Field
*Initial Conditions, type=FIELD, variable=3
PART-1-1.ND-BEP, 0.05
** Name: Field-11   Type: Field
*Initial Conditions, type=FIELD, variable=4
PART-1-1.ND-CEP, 0.0025
** Name: Field-12   Type: Field
*Initial Conditions, type=FIELD, variable=4
PART-1-1.ND-AF, 0.00016
** Name: Field-13   Type: Field
*Initial Conditions, type=FIELD, variable=4
PART-1-1.ND-NP, 0.00016
** Name: IC-1   Type: Void ratio
*Initial Conditions, TYPE=RATIO
PART-1-1.ND-CEP, 4.
** Name: IC-2   Type: Void ratio
*Initial Conditions, TYPE=RATIO
PART-1-1.ND-AF, 3.
** Name: IC-3   Type: Void ratio
*Initial Conditions, TYPE=RATIO
PART-1-1.ND-NP, 4.
** Name: IC-4   Type: Void ratio
*Initial Conditions, TYPE=RATIO
PART-1-1.ND-BEP, 0.05
** ----------------------------------------------------------------
** 
** STEP: Swelling
** 
*Step, name=Swelling, nlgeom=YES, inc=1000
Free swelling
*Soils, consolidation, end=PERIOD, utol=5.
2000., 61200., 2000., 61200., 
** 
** CONTROLS
** 
*Controls, reset
*Controls, analysis=discontinuous
*Controls, parameters=line search
4, 4., 0.05, , 0.15
*Controls, parameters=field, field=displacement
0.075, 0.075, , , , , , 
*Controls, parameters=field, field=hydrostatic fluid pressure
0.075, 0.075, , , , , , 
*Controls, parameters=field, field=rotation
0.075, 0.075, , , , , , 
*Controls, parameters=field, field=pore fluid pressure
0.075, 0.075, , , , , , 
** 
** OUTPUT REQUESTS
** 
*Restart, write, frequency=0
** 
** FIELD OUTPUT: F-Output-1
** 
*Output, field
*Node Output
CF, POR, RF, U
** 
** FIELD OUTPUT: F-Output-2
** 
*Element Output, rebar, directions=YES
FLUVR, FLVEL, LE, RBANG, RBFOR, RBROT, S, VOIDR
** 
** FIELD OUTPUT: F-Output-3
** 
*Element Output, directions=YES
FLUVR, FLVEL, LE, S, SDV, VOIDR
** 
** HISTORY OUTPUT: H-Output-1
** 
*Output, history, variable=PRESELECT
*End Step
** ----------------------------------------------------------------
** 
** STEP: Carga_noche
** 
*Step, name=Carga_noche, nlgeom=YES, amplitude=RAMP, inc=1000
Load at rest time
*Soils, consolidation, end=PERIOD, utol=5.
2.5, 10., 0.0001, 10., 
** 
** LOADS
** 
** Name: SURFFORCE-1   Type: Pressure
*Dsload, op=NEW
SURF-1, P, 0.11
** 
** CONTROLS
** 
*Controls, reset
*Controls, analysis=discontinuous
*Controls, parameters=line search
4, 4., 0.05, , 0.15
*Controls, parameters=field, field=displacement
0.075, 0.075, , , , , , 
*Controls, parameters=field, field=hydrostatic fluid pressure
0.075, 0.075, , , , , , 
*Controls, parameters=field, field=rotation
0.075, 0.075, , , , , , 
*Controls, parameters=field, field=pore fluid pressure
0.075, 0.075, , , , , , 
** 
** OUTPUT REQUESTS
** 
*Restart, write, frequency=0
** 
** FIELD OUTPUT: F-Output-4
** 
*Output, field
*Node Output
CF, POR, RF, U
** 
** FIELD OUTPUT: F-Output-5
** 
*Element Output, rebar, directions=YES
FLUVR, FLVEL, LE, RBANG, RBFOR, RBROT, S, VOIDR
** 
** FIELD OUTPUT: F-Output-6
** 
*Element Output, directions=YES
FLUVR, FLVEL, LE, S, SDV, VOIDR
** 
** HISTORY OUTPUT: H-Output-2
** 
*Output, history, variable=PRESELECT
*End Step
** ----------------------------------------------------------------
** 
** STEP: Creep_noche
** 
*Step, name=Creep_noche, nlgeom=YES, inc=1000
*Soils, consolidation, end=PERIOD, utol=5.
5., 28790., 1., 28790., 
** 
** LOADS
** 
** Name: SURFFORCE-1   Type: Pressure
*Dsload, op=NEW
** Name: SURFFORCE-2   Type: Pressure
*Dsload, op=NEW, amplitude=AMP-1
SURF-1, P, 0.11
** 
** CONTROLS
** 
*Controls, reset
*Controls, analysis=discontinuous
*Controls, parameters=line search
4, 4., 0.05, , 0.15
*Controls, parameters=field, field=displacement
0.075, 0.075, , , , , , 
*Controls, parameters=field, field=hydrostatic fluid pressure
0.075, 0.075, , , , , , 
*Controls, parameters=field, field=rotation
0.075, 0.075, , , , , , 
*Controls, parameters=field, field=pore fluid pressure
0.075, 0.075, , , , , , 
** 
** OUTPUT REQUESTS
** 
*Restart, write, frequency=0
** 
** FIELD OUTPUT: F-Output-7
** 
*Output, field
*Node Output
CF, POR, RF, U
** 
** FIELD OUTPUT: F-Output-8
** 
*Element Output, directions=YES
FLUVR, FLVEL, LE, S, SDV, VOIDR
** 
** HISTORY OUTPUT: H-Output-3
** 
*Output, history, variable=PRESELECT
*End Step
** ----------------------------------------------------------------
** 
** STEP: Carga_dia
** 
*Step, name=Carga_dia, nlgeom=YES, amplitude=RAMP, inc=1000
*Soils, consolidation, end=PERIOD, utol=5.
0.1, 10., 0.0001, 10., 
** 
** LOADS
** 
** Name: SURFFORCE-2   Type: Pressure
*Dsload, op=NEW
** Name: SURFFORCE-3   Type: Pressure
*Dsload, op=NEW
SURF-1, P, 0.54
** 
** OUTPUT REQUESTS
** 
*Restart, write, frequency=0
** 
** FIELD OUTPUT: F-Output-9
** 
*Output, field
*Node Output
CF, POR, RF, U
** 
** FIELD OUTPUT: F-Output-10
** 
*Element Output, rebar, directions=YES
FLUVR, FLVEL, LE, RBANG, RBFOR, RBROT, S, VOIDR
** 
** FIELD OUTPUT: F-Output-11
** 
*Element Output, directions=YES
FLUVR, FLVEL, LE, S, SDV, VOIDR
** 
** HISTORY OUTPUT: H-Output-4
** 
*Output, history, variable=PRESELECT
*End Step
** ----------------------------------------------------------------
** 
** STEP: Creep_dia
** 
*Step, name=Creep_dia, nlgeom=YES, inc=1000
*Soils, consolidation, end=PERIOD, utol=5.
5., 57590., 0.001, 57590., 
** 
** LOADS
** 
** Name: SURFFORCE-3   Type: Pressure
*Dsload, op=NEW
** Name: SURFFORCE-4   Type: Pressure
*Dsload, op=NEW, amplitude=AMP-2
SURF-1, P, 0.54
** 
** OUTPUT REQUESTS
** 
*Restart, write, frequency=0
** 
** FIELD OUTPUT: F-Output-12
** 
*Output, field
*Node Output
CF, POR, RF, U
** 
** FIELD OUTPUT: F-Output-13
** 
*Element Output, rebar, directions=YES
FLUVR, FLVEL, LE, RBANG, RBFOR, RBROT, S, VOIDR
** 
** FIELD OUTPUT: F-Output-14
** 
*Element Output, directions=YES
FLUVR, FLVEL, LE, S, SDV, VOIDR
** 
** HISTORY OUTPUT: H-Output-5
** 
*Output, history, variable=PRESELECT
*End Step
