*Heading
** Job name: templateCEPlower Model name: L4-L5_shell
** Generated by: Abaqus/CAE 2020
*Preprint, echo=NO, model=NO, history=NO, contact=NO
**
** PARTS
**
*Part, name=L4-L5-1
*Node
     74,   18.4473209,  -3.22484016,  -5.13032913
     76,   18.3727093,  -4.26329994,  -5.03588343
     78,   18.2980995,  -5.30175972,  -4.94143581
     80,   19.1173801,  -3.22639084,   -5.3070507
     82,   19.0654106,  -4.38119125,  -5.20414639
     84,   19.0134506,  -5.53598976,  -5.10124302
     92,   19.7874298,  -3.22793007,  -5.48377132
     94,     19.75811,  -4.49907112,  -5.37241077
     96,   19.7287903,  -5.77021027,  -5.26105022
    104,   20.4574909,  -3.22948074,   -5.6604929
    106,   20.4508209,  -4.61696053,  -5.54067516
    108,   20.4441395,  -6.00444031,  -5.42085743
    112,   17.8620701,   -6.2675209,  -4.85155869
    114,   17.4260406,  -7.23328018,  -4.76168299
    118,   18.5313396,  -6.61849976,  -5.00114155
    120,   18.0492306,  -7.70100975,  -4.90104008
    130,   19.2006092,  -6.96948051,  -5.15072346
    132,   18.6724205,  -8.16874027,  -5.04039764
    142,   19.8698807,  -7.32046127,   -5.3003068
    144,   19.2956104,  -8.63647079,  -5.17975569
** ... 14081 like lines cut
*Element, type=C3D20P
16793,   8178,   8184,   8722,   8716,  93554,  93560,  93562,  93556, 157263, 142494, 157364, 153698, 193855, 193856, 193857,
       193858, 193860, 193859, 193861, 193862
16794,   8716,   8722,   8724,   8718,  93556,  93562,  93564,  93558, 157364, 142496, 157365, 153700, 193857, 193863, 193864,
       193865, 193862, 193861, 193866, 193867
16795,   8184,   8196,   8734,   8722,  93560,  93566,  93568,  93562, 157265, 142498, 157366, 142494, 193868, 193869, 193870,
       193856, 193859, 193871, 193872, 193861
16796,   8722,   8734,   8736,   8724,  93562,  93568,  93570,  93564, 157366, 142500, 157367, 142496, 193870, 193873, 193874,
       193863, 193861, 193872, 193875, 193866
16797,   8196,   8208,   8746,   8734,  93566,   8208,   8746,  93568, 157267, 142502, 157368, 142498, 193876, 142502, 193877,
       193869, 193871,   8208,   8746, 193872
16798,   8734,   8746,   8748,   8736,  93568,   8746,   8748,  93570, 157368, 142504, 157369, 142500, 193877, 142504, 193878,
       193873, 193872,   8746,   8748, 193875
16799,  93554,  93560,  93562,  93556,  93578,  93584,  93586,  93580, 193855, 193856, 193857, 193858, 193879, 193880, 193881,
       193882, 193884, 193883, 193885, 193886
16800,  93556,  93562,  93564,  93558,  93580,  93586,  93588,  93582, 193857, 193863, 193864, 193865, 193881, 193887, 193888,
       193889, 193886, 193885, 193890, 193891
16801,  93560,  93566,  93568,  93562,  93584,  93590,  93592,  93586, 193868, 193869, 193870, 193856, 193892, 193893, 193894,
       193880, 193883, 193895, 193896, 193885
16802,  93562,  93568,  93570,  93564,  93586,  93592,  93594,  93588, 193870, 193873, 193874, 193863, 193894, 193897, 193898,
       193887, 193885, 193896, 193899, 193890
** ... 5164 like lines cut
*Elset, elset=CEP
 16793, 16794, 16795, 16796, 16797, 16798, 16799, 16800, 16801, 16802, 16803, 16804, 16805, 16806, 16807, 16808
 16809, 16810, 16811, 16812, 16813, 16814, 16815, 16816, 16817, 16818, 16819, 16820, 16821, 16822, 16823, 16824
 16825, 16826, 16827, 16828, 16829, 16830, 16831, 16832, 16833, 16834, 16835, 16836, 16837, 16838, 16839, 16840
 16841, 16842, 16843, 16844, 16845, 16846, 16847, 16848, 16849, 16850, 16851, 16852, 16853, 16854, 16855, 16856
 16857, 16858, 16859, 16860, 16861, 16862, 16863, 16864, 16865, 16866, 16867, 16868, 16869, 16870, 16871, 16872
 16873, 16874, 16875, 16876, 16877, 16878, 16879, 16880, 16881, 16882, 16883, 16884, 16885, 16886, 16887, 16888
 16889, 16890, 16891, 16892, 16893, 16894, 16895, 16896, 16897, 16898, 16899, 16900, 16901, 16902, 16903, 16904
 16905, 16906, 16907, 16908, 16909, 16910, 16911, 16912, 16913, 16914, 16915, 16916, 16917, 16918, 16919, 16920
 16921, 16922, 16923, 16924, 16925, 16926, 16927, 16928, 16929, 16930, 16931, 16932, 16933, 16934, 16935, 16936
 16937, 16938, 16939, 16940, 16941, 16942, 16943, 16944, 16945, 16946, 16947, 16948, 16949, 16950, 16951, 16952
 16953, 16954, 16955, 16956, 16957, 16958, 16959, 16960, 16961, 16962, 16963, 16964, 16965, 16966, 16967, 16968
 16969, 16970, 16971, 16972, 16973, 16974, 16975, 16976, 16977, 16978, 16979, 16980, 16981, 16982, 16983, 16984
 16985, 16986, 16987, 16988, 16989, 16990, 16991, 16992, 16993, 16994, 16995, 16996, 16997, 16998, 16999, 17000
 17001, 17002, 17003, 17004, 17005, 17006, 17007, 17008, 17009, 17010, 17011, 17012, 17013, 17014, 17015, 17016
 17017, 17018, 17019, 17020, 17021, 17022, 17023, 17024, 17025, 17026, 17027, 17028, 17029, 17030, 17031, 17032
 17033, 17034, 17035, 17036, 17037, 17038, 17039, 17040, 17041, 17042, 17043, 17044, 17045, 17046, 17047, 17048
 17049, 17050, 17051, 17052, 17053, 17054, 17055, 17056, 17057, 17058, 17059, 17060, 17061, 17062, 17063, 17064
 17065, 17066, 17067, 17068, 17069, 17070, 17071, 17072, 17073, 17074, 17075, 17076, 17077, 17078, 17079, 17080
 17081, 17082, 17083, 17084, 17085, 17086, 17087, 17088, 17089, 17090, 17091, 17092, 17093, 17094, 17095, 17096
 17097, 17098, 17099, 17100, 17101, 17102, 17103, 17104, 17105, 17106, 17107, 17108, 17109, 17110, 17111, 17112
** ... 142 like lines cut
*Nset, nset=ND-AF
     74,     76,     78,     80,     82,     84,     92,     94,     96,    104,    106,    108,    112,    114,    118,    120
    130,    132,    142,    144,    650,    652,    654,    656,    658,    660,    668,    670,    672,    680,    682,    684
    688,    694,    706,    718,   1226,   1228,   1230,   1232,   1234,   1236,   1244,   1246,   1248,   1256,   1258,   1260
   1264,   1270,   1282,   1294,   1802,   1804,   1806,   1808,   1810,   1812,   1820,   1822,   1824,   1832,   1834,   1836
   1840,   1846,   1858,   1870,   2378,   2380,   2382,   2384,   2386,   2388,   2396,   2398,   2400,   2408,   2410,   2412
   2416,   2422,   2434,   2446,   2954,   2956,   2958,   2960,   2962,   2964,   2972,   2974,   2976,   2984,   2986,   2988
   2992,   2998,   3010,   3022,   3459,   3461,   3465,   3467,   3477,   3479,   3489,   3491,   3495,   3497,   3501,   3503
   3513,   3515,   3525,   3527,   4035,   4037,   4041,   4043,   4053,   4055,   4065,   4067,   4071,   4073,   4077,   4079
   4089,   4091,   4101,   4103,   4611,   4613,   4617,   4619,   4629,   4631,   4641,   4643,   4647,   4649,   4653,   4655
   4665,   4667,   4677,   4679,   5187,   5189,   5193,   5195,   5205,   5207,   5217,   5219,   5223,   5225,   5229,   5231
   5241,   5243,   5253,   5255,   5763,   5765,   5769,   5771,   5781,   5783,   5793,   5795,   5799,   5801,   5805,   5807
   5817,   5819,   5829,   5831,   6339,   6341,   6345,   6347,   6357,   6359,   6369,   6371,   6375,   6377,   6381,   6383
   6393,   6395,   6405,   6407,   6988,   6990,   6994,   6996,   7006,   7008,   7018,   7020,   7024,   7026,   7030,   7032
   7042,   7044,   7054,   7056,   7564,   7566,   7570,   7572,   7582,   7584,   7594,   7596,   7600,   7602,   7606,   7608
   7618,   7620,   7630,   7632,   8140,   8142,   8146,   8148,   8158,   8160,   8170,   8172,   8176,   8178,   8182,   8184
   8194,   8196,   8206,   8208,   8716,   8718,   8722,   8724,   8734,   8736,   8746,   8748,   8752,   8754,   8758,   8760
   8770,   8772,   8782,   8784,   9219,   9221,   9225,   9227,   9237,   9239,   9249,   9251,   9255,   9257,   9261,   9263
   9273,   9275,   9285,   9287,   9795,   9797,   9801,   9803,   9813,   9815,   9825,   9827,   9831,   9833,   9837,   9839
   9849,   9851,   9861,   9863,  10371,  10373,  10377,  10379,  10389,  10391,  10401,  10403,  10407,  10409,  10413,  10415
  10425,  10427,  10437,  10439,  10947,  10949,  10953,  10955,  10965,  10967,  10977,  10979,  10983,  10989,  11001,  11013
** ... 65 like lines cut
*Nset, nset=ND-NP
  34609,  34611,  34613,  34635,  34637,  34945,  34947,  34949,  34971,  35329,  35331,  35333,  35355,  35713,  35715,  35717
  35739,  36097,  36099,  36101,  36123,  36481,  36483,  36485,  36507,  36916,  36918,  36940,  36942,  37300,  37302,  37324
  37326,  37684,  37686,  37708,  37710,  38068,  38070,  38092,  38094,  38452,  38454,  38476,  38478,  38836,  38838,  38860
  38862,  39220,  39222,  39244,  39246,  39604,  39606,  39628,  39630,  39988,  39990,  40012,  40014,  40372,  40374,  40396
  40398,  40707,  40709,  40731,  40733,  41091,  41093,  41115,  41117,  41475,  41477,  41499,  41501,  41859,  41861,  41883
  43321,  43323,  43325,  43327,  43329,  43331,  43339,  43341,  43343,  43351,  43353,  43355,  43363,  43365,  43367,  43383
  43385,  43389,  43391,  43401,  43403,  43413,  43415,  43425,  43427,  43927,  43929,  43931,  43939,  43941,  43943,  43951
  43953,  43955,  43963,  43965,  43967,  43975,  43977,  43979,  43989,  43991,  44001,  44003,  44013,  44015,  44025,  44027
  44037,  44039,  47048,  47050,  47052,  47060,  47062,  47064,  47072,  47074,  47076,  47084,  47086,  47088,  47096,  47098
  47100,  47110,  47112,  47122,  47124,  47134,  47136,  47146,  47148,  47158,  47160,  48122,  48124,  48126,  48128,  48130
  48132,  48140,  48142,  48144,  48152,  48154,  48156,  48164,  48166,  48168,  48184,  48186,  48190,  48192,  48202,  48204
  48214,  48216,  48226,  48228,  52082,  52084,  52086,  52088,  52090,  52092,  52100,  52102,  52104,  52112,  52114,  52116
  52124,  52126,  52128,  52144,  52146,  52150,  52152,  52162,  52164,  52174,  52176,  52186,  52188,  52201,  52203,  52205
  52207,  52209,  52211,  52219,  52221,  52223,  52231,  52233,  52235,  52243,  52245,  52247,  52263,  52265,  52269,  52271
  52281,  52283,  52293,  52295,  52305,  52307,  52445,  52447,  52449,  52451,  52459,  52463,  52471,  52475,  52483,  52487
  52505,  52507,  52519,  52531,  52543,  53285,  53287,  53289,  53291,  53299,  53303,  53311,  53315,  53323,  53327,  53345
  53347,  53359,  53371,  53383,  54007,  54011,  54019,  54023,  54031,  54035,  54043,  54047,  54055,  54059,  54067,  54071
  54079,  54083,  54091,  54095,  54103,  54107,  54115,  54119,  54481,  54483,  54485,  54487,  54489,  54491,  54495,  54499
  54503,  54507,  54511,  54515,  54519,  54523,  54527,  54545,  54547,  54559,  54571,  54583,  54966,  54968,  54970,  54972
  54980,  54984,  54992,  54996,  55004,  55008,  55026,  55028,  55030,  55032,  55040,  55044,  55052,  55056,  55064,  55068
** ... 154 like lines cut
*Nset, nset=ND-CEP
     74,     76,     78,     80,     82,     84,     92,     94,     96,    104,    106,    108,    112,    114,    118,    120
    130,    132,    142,    144,    650,    652,    654,    656,    658,    660,    668,    670,    672,    680,    682,    684
    688,    694,    706,    718,   1226,   1228,   1230,   1232,   1234,   1236,   1244,   1246,   1248,   1256,   1258,   1260
   1264,   1270,   1282,   1294,   1802,   1804,   1806,   1808,   1810,   1812,   1820,   1822,   1824,   1832,   1834,   1836
   1840,   1846,   1858,   1870,   2378,   2380,   2382,   2384,   2386,   2388,   2396,   2398,   2400,   2408,   2410,   2412
   2416,   2422,   2434,   2446,   2954,   2956,   2958,   2960,   2962,   2964,   2972,   2974,   2976,   2984,   2986,   2988
   2992,   2998,   3010,   3022,   3459,   3461,   3465,   3467,   3477,   3479,   3489,   3491,   3495,   3497,   3501,   3503
   3513,   3515,   3525,   3527,   4035,   4037,   4041,   4043,   4053,   4055,   4065,   4067,   4071,   4073,   4077,   4079
   4089,   4091,   4101,   4103,   4611,   4613,   4617,   4619,   4629,   4631,   4641,   4643,   4647,   4649,   4653,   4655
   4665,   4667,   4677,   4679,   5187,   5189,   5193,   5195,   5205,   5207,   5217,   5219,   5223,   5225,   5229,   5231
   5241,   5243,   5253,   5255,   5763,   5765,   5769,   5771,   5781,   5783,   5793,   5795,   5799,   5801,   5805,   5807
   5817,   5819,   5829,   5831,   6339,   6341,   6345,   6347,   6357,   6359,   6369,   6371,   6375,   6377,   6381,   6383
   6393,   6395,   6405,   6407,   6988,   6990,   6994,   6996,   7006,   7008,   7018,   7020,   7024,   7026,   7030,   7032
   7042,   7044,   7054,   7056,   7564,   7566,   7570,   7572,   7582,   7584,   7594,   7596,   7600,   7602,   7606,   7608
   7618,   7620,   7630,   7632,   8140,   8142,   8146,   8148,   8158,   8160,   8170,   8172,   8176,   8178,   8182,   8184
   8194,   8196,   8206,   8208,   8716,   8718,   8722,   8724,   8734,   8736,   8746,   8748,   8752,   8754,   8758,   8760
   8770,   8772,   8782,   8784,   9219,   9221,   9225,   9227,   9237,   9239,   9249,   9251,   9255,   9257,   9261,   9263
   9273,   9275,   9285,   9287,   9795,   9797,   9801,   9803,   9813,   9815,   9825,   9827,   9831,   9833,   9837,   9839
   9849,   9851,   9861,   9863,  10371,  10373,  10377,  10379,  10389,  10391,  10401,  10403,  10407,  10409,  10413,  10415
  10425,  10427,  10437,  10439,  10947,  10949,  10953,  10955,  10965,  10967,  10977,  10979,  10983,  10989,  11001,  11013
** ... 862 like lines cut
*Nset, nset=ND-BEP
    104,    106,    108,    142,    144,    680,    682,    684,    718,   1256,   1258,   1260,   1294,   1832,   1834,   1836
   1870,   2408,   2410,   2412,   2446,   2984,   2986,   2988,   3022,   3489,   3491,   3525,   3527,   4065,   4067,   4101
   4103,   4641,   4643,   4677,   4679,   5217,   5219,   5253,   5255,   5793,   5795,   5829,   5831,   6369,   6371,   6405
   6407,   7018,   7020,   7054,   7056,   7594,   7596,   7630,   7632,   8170,   8172,   8206,   8208,   8746,   8748,   8782
   8784,   9249,   9251,   9285,   9287,   9825,   9827,   9861,   9863,  10401,  10403,  10437,  10439,  10977,  10979,  11013
  93578,  93580,  93582,  93584,  93586,  93588,  93590,  93592,  93594,  93628,  93630,  93634,  93636,  93640,  93642,  93649
  93651,  93653,  93655,  93657,  93659,  93661,  93663,  93665,  93699,  93705,  93711,  93770,  93772,  93774,  93776,  93778
  93780,  93782,  93784,  93786,  93820,  93822,  93826,  93828,  93832,  93834,  93843,  93845,  93849,  93851,  93855,  93857
  93891,  93893,  93897,  93899,  93903,  93905,  93962,  93964,  93966,  93968,  93970,  93972,  93974,  93976,  93978,  94012
  94018,  94024,  94033,  94035,  94037,  94039,  94041,  94043,  94045,  94047,  94049,  94083,  94089,  94095,  94156,  94158
  94162,  94164,  94168,  94170,  94204,  94206,  94210,  94212,  94216,  94218,  94227,  94229,  94233,  94235,  94239,  94241
  94275,  94277,  94281,  94283,  94287,  94289,  94346,  94348,  94350,  94352,  94354,  94356,  94358,  94360,  94362,  94396
  94402,  94408,  94417,  94419,  94421,  94423,  94425,  94427,  94429,  94431,  94433,  94467,  94473,  94479,  94538,  94540
  94542,  94544,  94546,  94548,  94550,  94552,  94554,  94588,  94594,  94600,  94609,  94611,  94613,  94615,  94617,  94619
  94621,  94623,  94625,  94659,  94665,  94671,  94732,  94734,  94738,  94740,  94744,  94746,  94780,  94782,  94786,  94788
  94792,  94794,  94803,  94805,  94809,  94811,  94815,  94817,  94851,  94853,  94857,  94859,  94863,  94865,  94922,  94924
  94926,  94928,  94930,  94932,  94934,  94936,  94938,  94972,  94978,  94984,  94993,  94995,  94997,  94999,  95001,  95003
  95005,  95007,  95009,  95043,  95049,  95055,  95114,  95116,  95118,  95120,  95122,  95124,  95126,  95128,  95130,  95164
  95170,  95176,  95185,  95187,  95189,  95191,  95193,  95195,  95197,  95199,  95201,  95235,  95241,  95247,  95308,  95310
  95314,  95316,  95320,  95322,  95356,  95362,  95368,  95379,  95381,  95385,  95387,  95391,  95393,  95427,  95433,  95439
** ... 229 like lines cut
*Nset, nset=ND-BEP-F
    104,    106,    108,    142,    144,    680,    682,    684,    718,   1256,   1258,   1260,   1294,   1832,   1834,   1836
   1870,   2408,   2410,   2412,   2446,   2984,   2986,   2988,   3022,   3489,   3491,   3525,   3527,   4065,   4067,   4101
   4103,   4641,   4643,   4677,   4679,   5217,   5219,   5253,   5255,   5793,   5795,   5829,   5831,   6369,   6371,   6405
   6407,   7018,   7020,   7054,   7056,   7594,   7596,   7630,   7632,   8170,   8172,   8206,   8208,   8746,   8748,   8782
   8784,   9249,   9251,   9285,   9287,   9825,   9827,   9861,   9863,  10401,  10403,  10437,  10439,  10977,  10979,  11013
  93578,  93580,  93582,  93584,  93586,  93588,  93590,  93592,  93594,  93628,  93630,  93634,  93636,  93640,  93642,  93649
  93651,  93653,  93655,  93657,  93659,  93661,  93663,  93665,  93699,  93705,  93711,  93770,  93772,  93774,  93776,  93778
  93780,  93782,  93784,  93786,  93820,  93822,  93826,  93828,  93832,  93834,  93843,  93845,  93849,  93851,  93855,  93857
  93891,  93893,  93897,  93899,  93903,  93905,  93962,  93964,  93966,  93968,  93970,  93972,  93974,  93976,  93978,  94012
  94018,  94024,  94033,  94035,  94037,  94039,  94041,  94043,  94045,  94047,  94049,  94083,  94089,  94095,  94156,  94158
  94162,  94164,  94168,  94170,  94204,  94206,  94210,  94212,  94216,  94218,  94227,  94229,  94233,  94235,  94239,  94241
  94275,  94277,  94281,  94283,  94287,  94289,  94346,  94348,  94350,  94352,  94354,  94356,  94358,  94360,  94362,  94396
  94402,  94408,  94417,  94419,  94421,  94423,  94425,  94427,  94429,  94431,  94433,  94467,  94473,  94479,  94538,  94540
  94542,  94544,  94546,  94548,  94550,  94552,  94554,  94588,  94594,  94600,  94609,  94611,  94613,  94615,  94617,  94619
  94621,  94623,  94625,  94659,  94665,  94671,  94732,  94734,  94738,  94740,  94744,  94746,  94780,  94782,  94786,  94788
  94792,  94794,  94803,  94805,  94809,  94811,  94815,  94817,  94851,  94853,  94857,  94859,  94863,  94865,  94922,  94924
  94926,  94928,  94930,  94932,  94934,  94936,  94938,  94972,  94978,  94984,  94993,  94995,  94997,  94999,  95001,  95003
  95005,  95007,  95009,  95043,  95049,  95055,  95114,  95116,  95118,  95120,  95122,  95124,  95126,  95128,  95130,  95164
  95170,  95176,  95185,  95187,  95189,  95191,  95193,  95195,  95197,  95199,  95201,  95235,  95241,  95247,  95308,  95310
  95314,  95316,  95320,  95322,  95356,  95362,  95368,  95379,  95381,  95385,  95387,  95391,  95393,  95427,  95433,  95439
** ... 229 like lines cut
*Nset, nset=ND-SURF_PP__PP__PP_, internal
    104,    106,    108,    142,    144,    680,    682,    684,    718,   1256,   1258,   1260,   1294,   1832,   1834,   1836
   1870,   2408,   2410,   2412,   2446,   2984,   2986,   2988,   3022,   3489,   3491,   3525,   3527,   4065,   4067,   4101
   4103,   4641,   4643,   4677,   4679,   5217,   5219,   5253,   5255,   5793,   5795,   5829,   5831,   6369,   6371,   6405
   6407,   7018,   7020,   7054,   7056,   7594,   7596,   7630,   7632,   8170,   8172,   8206,   8208,   8746,   8748,   8782
   8784,   9249,   9251,   9285,   9287,   9825,   9827,   9861,   9863,  10401,  10403,  10437,  10439,  10977,  10979,  11013
  93578,  93580,  93582,  93584,  93586,  93588,  93590,  93592,  93594,  93628,  93630,  93634,  93636,  93640,  93642,  93649
  93651,  93653,  93655,  93657,  93659,  93661,  93663,  93665,  93699,  93705,  93711,  93770,  93772,  93774,  93776,  93778
  93780,  93782,  93784,  93786,  93820,  93822,  93826,  93828,  93832,  93834,  93843,  93845,  93849,  93851,  93855,  93857
  93891,  93893,  93897,  93899,  93903,  93905,  93962,  93964,  93966,  93968,  93970,  93972,  93974,  93976,  93978,  94012
  94018,  94024,  94033,  94035,  94037,  94039,  94041,  94043,  94045,  94047,  94049,  94083,  94089,  94095,  94156,  94158
  94162,  94164,  94168,  94170,  94204,  94206,  94210,  94212,  94216,  94218,  94227,  94229,  94233,  94235,  94239,  94241
  94275,  94277,  94281,  94283,  94287,  94289,  94346,  94348,  94350,  94352,  94354,  94356,  94358,  94360,  94362,  94396
  94402,  94408,  94417,  94419,  94421,  94423,  94425,  94427,  94429,  94431,  94433,  94467,  94473,  94479,  94538,  94540
  94542,  94544,  94546,  94548,  94550,  94552,  94554,  94588,  94594,  94600,  94609,  94611,  94613,  94615,  94617,  94619
  94621,  94623,  94625,  94659,  94665,  94671,  94732,  94734,  94738,  94740,  94744,  94746,  94780,  94782,  94786,  94788
  94792,  94794,  94803,  94805,  94809,  94811,  94815,  94817,  94851,  94853,  94857,  94859,  94863,  94865,  94922,  94924
  94926,  94928,  94930,  94932,  94934,  94936,  94938,  94972,  94978,  94984,  94993,  94995,  94997,  94999,  95001,  95003
  95005,  95007,  95009,  95043,  95049,  95055,  95114,  95116,  95118,  95120,  95122,  95124,  95126,  95128,  95130,  95164
  95170,  95176,  95185,  95187,  95189,  95191,  95193,  95195,  95197,  95199,  95201,  95235,  95241,  95247,  95308,  95310
  95314,  95316,  95320,  95322,  95356,  95362,  95368,  95379,  95381,  95385,  95387,  95391,  95393,  95427,  95433,  95439
** ... 229 like lines cut
** Section: Section-10-CEP
*Solid Section, elset=CEP, material=CEP
,
*End Part
**  
**
** ASSEMBLY
**
*Assembly, name=Assembly
**  
*Instance, name=L4-L5-1-1, part=L4-L5-1
*End Instance
**  
*Elset, elset=ALL_3DSOLID, instance=L4-L5-1-1
 16793, 16794, 16795, 16796, 16797, 16798, 16799, 16800, 16801, 16802, 16803, 16804, 16805, 16806, 16807, 16808
 16809, 16810, 16811, 16812, 16813, 16814, 16815, 16816, 16817, 16818, 16819, 16820, 16821, 16822, 16823, 16824
 16825, 16826, 16827, 16828, 16829, 16830, 16831, 16832, 16833, 16834, 16835, 16836, 16837, 16838, 16839, 16840
 16841, 16842, 16843, 16844, 16845, 16846, 16847, 16848, 16849, 16850, 16851, 16852, 16853, 16854, 16855, 16856
 16857, 16858, 16859, 16860, 16861, 16862, 16863, 16864, 16865, 16866, 16867, 16868, 16869, 16870, 16871, 16872
 16873, 16874, 16875, 16876, 16877, 16878, 16879, 16880, 16881, 16882, 16883, 16884, 16885, 16886, 16887, 16888
 16889, 16890, 16891, 16892, 16893, 16894, 16895, 16896, 16897, 16898, 16899, 16900, 16901, 16902, 16903, 16904
 16905, 16906, 16907, 16908, 16909, 16910, 16911, 16912, 16913, 16914, 16915, 16916, 16917, 16918, 16919, 16920
 16921, 16922, 16923, 16924, 16925, 16926, 16927, 16928, 16929, 16930, 16931, 16932, 16933, 16934, 16935, 16936
 16937, 16938, 16939, 16940, 16941, 16942, 16943, 16944, 16945, 16946, 16947, 16948, 16949, 16950, 16951, 16952
 16953, 16954, 16955, 16956, 16957, 16958, 16959, 16960, 16961, 16962, 16963, 16964, 16965, 16966, 16967, 16968
 16969, 16970, 16971, 16972, 16973, 16974, 16975, 16976, 16977, 16978, 16979, 16980, 16981, 16982, 16983, 16984
 16985, 16986, 16987, 16988, 16989, 16990, 16991, 16992, 16993, 16994, 16995, 16996, 16997, 16998, 16999, 17000
 17001, 17002, 17003, 17004, 17005, 17006, 17007, 17008, 17009, 17010, 17011, 17012, 17013, 17014, 17015, 17016
 17017, 17018, 17019, 17020, 17021, 17022, 17023, 17024, 17025, 17026, 17027, 17028, 17029, 17030, 17031, 17032
 17033, 17034, 17035, 17036, 17037, 17038, 17039, 17040, 17041, 17042, 17043, 17044, 17045, 17046, 17047, 17048
 17049, 17050, 17051, 17052, 17053, 17054, 17055, 17056, 17057, 17058, 17059, 17060, 17061, 17062, 17063, 17064
 17065, 17066, 17067, 17068, 17069, 17070, 17071, 17072, 17073, 17074, 17075, 17076, 17077, 17078, 17079, 17080
 17081, 17082, 17083, 17084, 17085, 17086, 17087, 17088, 17089, 17090, 17091, 17092, 17093, 17094, 17095, 17096
 17097, 17098, 17099, 17100, 17101, 17102, 17103, 17104, 17105, 17106, 17107, 17108, 17109, 17110, 17111, 17112
** ... 142 like lines cut
*Elset, elset=ALL_MASSIVE_ELEMENTS, instance=L4-L5-1-1
 16793, 16794, 16795, 16796, 16797, 16798, 16799, 16800, 16801, 16802, 16803, 16804, 16805, 16806, 16807, 16808
 16809, 16810, 16811, 16812, 16813, 16814, 16815, 16816, 16817, 16818, 16819, 16820, 16821, 16822, 16823, 16824
 16825, 16826, 16827, 16828, 16829, 16830, 16831, 16832, 16833, 16834, 16835, 16836, 16837, 16838, 16839, 16840
 16841, 16842, 16843, 16844, 16845, 16846, 16847, 16848, 16849, 16850, 16851, 16852, 16853, 16854, 16855, 16856
 16857, 16858, 16859, 16860, 16861, 16862, 16863, 16864, 16865, 16866, 16867, 16868, 16869, 16870, 16871, 16872
 16873, 16874, 16875, 16876, 16877, 16878, 16879, 16880, 16881, 16882, 16883, 16884, 16885, 16886, 16887, 16888
 16889, 16890, 16891, 16892, 16893, 16894, 16895, 16896, 16897, 16898, 16899, 16900, 16901, 16902, 16903, 16904
 16905, 16906, 16907, 16908, 16909, 16910, 16911, 16912, 16913, 16914, 16915, 16916, 16917, 16918, 16919, 16920
 16921, 16922, 16923, 16924, 16925, 16926, 16927, 16928, 16929, 16930, 16931, 16932, 16933, 16934, 16935, 16936
 16937, 16938, 16939, 16940, 16941, 16942, 16943, 16944, 16945, 16946, 16947, 16948, 16949, 16950, 16951, 16952
 16953, 16954, 16955, 16956, 16957, 16958, 16959, 16960, 16961, 16962, 16963, 16964, 16965, 16966, 16967, 16968
 16969, 16970, 16971, 16972, 16973, 16974, 16975, 16976, 16977, 16978, 16979, 16980, 16981, 16982, 16983, 16984
 16985, 16986, 16987, 16988, 16989, 16990, 16991, 16992, 16993, 16994, 16995, 16996, 16997, 16998, 16999, 17000
 17001, 17002, 17003, 17004, 17005, 17006, 17007, 17008, 17009, 17010, 17011, 17012, 17013, 17014, 17015, 17016
 17017, 17018, 17019, 17020, 17021, 17022, 17023, 17024, 17025, 17026, 17027, 17028, 17029, 17030, 17031, 17032
 17033, 17034, 17035, 17036, 17037, 17038, 17039, 17040, 17041, 17042, 17043, 17044, 17045, 17046, 17047, 17048
 17049, 17050, 17051, 17052, 17053, 17054, 17055, 17056, 17057, 17058, 17059, 17060, 17061, 17062, 17063, 17064
 17065, 17066, 17067, 17068, 17069, 17070, 17071, 17072, 17073, 17074, 17075, 17076, 17077, 17078, 17079, 17080
 17081, 17082, 17083, 17084, 17085, 17086, 17087, 17088, 17089, 17090, 17091, 17092, 17093, 17094, 17095, 17096
 17097, 17098, 17099, 17100, 17101, 17102, 17103, 17104, 17105, 17106, 17107, 17108, 17109, 17110, 17111, 17112
** ... 142 like lines cut
*End Assembly
*Amplitude, name=AMP-1
             0.,              1.,          28790.,              1.
*Amplitude, name=AMP-2
             0.,              1.,          57590.,              1.
** 
** MATERIALS
** 
** ********************************************
**   Annulus
** ********************************************
*Material, name=AF
*Depvar
      8,
*User Defined Field
*User Material, constants=6
 0.84, 0.704,  0.15,  0.18,  0.65,    0.
*Material, name=AF-Z1
*Depvar
      8,
*User Defined Field
*User Material, constants=6
 0.84, 0.704,  0.15,  0.18,  0.65,    0.
*Material, name=AF-Z2
*Depvar
      8,
*User Defined Field
*User Material, constants=6
 0.84, 0.704,  0.15,  0.18,  0.65,    0.
*Material, name=BEP
*Elastic
10000., 0.3
*Permeability, specific=1.
26800., 0.05
** ********************************************
**   Cartilage endplates
** ********************************************
*Material, name=CEP
*Depvar
      8,
*User Defined Field
*User Material, constants=6
1., 0.589,  0.15, 0.166,  0.24,    0.
*Material, name=COLLAGEN
*Depvar
      1,
*User Material, constants=5
4000., 2.8, 11., 6.1,  8.
*Material, name=NP
*Depvar
      8,
*User Defined Field
*User Material, constants=6
1., 0.745,  0.15,  0.29,  0.15,    0.
*Material, name=NP-Z1
*Depvar
      8,
*User Defined Field
*User Material, constants=6
1., 0.745,  0.15,  0.29,  0.15,    0.
*Material, name=NP-Z2
*Depvar
      8,
*User Defined Field
*User Material, constants=6
1., 0.745,  0.15,  0.29,  0.15,    0.
*Material, name=NP-Z3
*Depvar
      8,
*User Defined Field
*User Material, constants=6
1., 0.745,  0.15,  0.29,  0.15,    0.
*Material, name=NP-Z4
*Depvar
      8,
*User Defined Field
*User Material, constants=6
1., 0.745,  0.15,  0.29,  0.15,    0.
*Material, name=NP-Z5
*Depvar
      8,
*User Defined Field
*User Material, constants=6
1., 0.745,  0.15,  0.29,  0.15,    0.
** 
** PREDEFINED FIELDS
** 
** Name: Field-1   Type: Field
*Initial Conditions, type=FIELD, variable=1
L4-L5-1-1.ND-CEP, 0.017
** Name: Field-2   Type: Field
*Initial Conditions, type=FIELD, variable=1
L4-L5-1-1.ND-AF, 0.00016
** Name: Field-3   Type: Field
*Initial Conditions, type=FIELD, variable=1
L4-L5-1-1.ND-NP, 0.00016
** Name: Field-4   Type: Field
*Initial Conditions, type=FIELD, variable=2
L4-L5-1-1.ND-CEP, 1.2
** Name: Field-5   Type: Field
*Initial Conditions, type=FIELD, variable=2
L4-L5-1-1.ND-AF, 1.2
** Name: Field-6   Type: Field
*Initial Conditions, type=FIELD, variable=2
L4-L5-1-1.ND-NP, 1.2
** Name: Field-7   Type: Field
*Initial Conditions, type=FIELD, variable=3
L4-L5-1-1.ND-CEP, 1.94
** Name: Field-8   Type: Field
*Initial Conditions, type=FIELD, variable=3
L4-L5-1-1.ND-AF, 3.
** Name: Field-9   Type: Field
*Initial Conditions, type=FIELD, variable=3
L4-L5-1-1.ND-NP, 4.
** Name: Field-10   Type: Field
*Initial Conditions, type=FIELD, variable=4
L4-L5-1-1.ND-CEP, 0.017
** Name: Field-11   Type: Field
*Initial Conditions, type=FIELD, variable=4
L4-L5-1-1.ND-AF, 0.00016
** Name: Field-12   Type: Field
*Initial Conditions, type=FIELD, variable=4
L4-L5-1-1.ND-NP, 0.00016
** Name: IC-1   Type: Void ratio
*Initial Conditions, TYPE=RATIO
L4-L5-1-1.ND-CEP, 1.94
** Name: IC-2   Type: Void ratio
*Initial Conditions, TYPE=RATIO
L4-L5-1-1.ND-AF, 3.
** Name: IC-3   Type: Void ratio
*Initial Conditions, TYPE=RATIO
L4-L5-1-1.ND-NP, 4.
** ----------------------------------------------------------------
** 
** STEP: Swelling
** 
*Step, name=Swelling, nlgeom=YES, inc=1000
Free swelling
*Soils, consolidation, end=PERIOD, utol=5.
2000., 61200., 2000., 61200., 
** 
** CONTROLS
** 
*Controls, reset
*Controls, analysis=discontinuous
*Controls, parameters=line search
4, 4., 0.05, , 0.15
*Controls, parameters=field, field=displacement
0.075, 0.075, , , , , , 
*Controls, parameters=field, field=hydrostatic fluid pressure
0.075, 0.075, , , , , , 
*Controls, parameters=field, field=rotation
0.075, 0.075, , , , , , 
*Controls, parameters=field, field=pore fluid pressure
0.075, 0.075, , , , , , 
** 
** OUTPUT REQUESTS
** 
*Restart, write, overlay, frequency=1
** 
** FIELD OUTPUT: F-Output-3
** 
*Output, field
*Node Output
CF, POR, RF, U
** 
** FIELD OUTPUT: F-Output-1
** 
*Element Output, rebar, directions=YES
FLUVR, FLVEL, LE, RBANG, RBFOR, RBROT, S, VOIDR
** 
** FIELD OUTPUT: F-Output-2
** 
*Element Output, directions=YES
FLUVR, FLVEL, LE, S, SDV, VOIDR
** 
** HISTORY OUTPUT: H-Output-1
** 
*Output, history, variable=PRESELECT
*End Step
** ----------------------------------------------------------------
** 
** STEP: Carga_noche
** 
*Step, name=Carga_noche, nlgeom=YES, amplitude=RAMP, inc=1000
Load at rest time
*Soils, consolidation, end=PERIOD, utol=5.
2.5, 10., 0.0001, 10., 
** 
** CONTROLS
** 
*Controls, reset
*Controls, analysis=discontinuous
*Controls, parameters=line search
4, 4., 0.05, , 0.15
*Controls, parameters=field, field=displacement
0.075, 0.075, , , , , , 
*Controls, parameters=field, field=hydrostatic fluid pressure
0.075, 0.075, , , , , , 
*Controls, parameters=field, field=rotation
0.075, 0.075, , , , , , 
*Controls, parameters=field, field=pore fluid pressure
0.075, 0.075, , , , , , 
** 
** OUTPUT REQUESTS
** 
*Restart, write, overlay, frequency=1
** 
** FIELD OUTPUT: F-Output-6
** 
*Output, field
*Node Output
CF, POR, RF, U
** 
** FIELD OUTPUT: F-Output-4
** 
*Element Output, rebar, directions=YES
FLUVR, FLVEL, LE, RBANG, RBFOR, RBROT, S, VOIDR
** 
** FIELD OUTPUT: F-Output-5
** 
*Element Output, directions=YES
FLUVR, FLVEL, LE, S, SDV, VOIDR
** 
** HISTORY OUTPUT: H-Output-2
** 
*Output, history, variable=PRESELECT
*End Step
** ----------------------------------------------------------------
** 
** STEP: Creep_noche
** 
*Step, name=Creep_noche, nlgeom=YES, inc=1000
*Soils, consolidation, end=PERIOD, utol=5.
5., 28790., 1., 28790., 
** 
** CONTROLS
** 
*Controls, reset
*Controls, analysis=discontinuous
*Controls, parameters=line search
4, 4., 0.05, , 0.15
*Controls, parameters=field, field=displacement
0.075, 0.075, , , , , , 
*Controls, parameters=field, field=hydrostatic fluid pressure
0.075, 0.075, , , , , , 
*Controls, parameters=field, field=rotation
0.075, 0.075, , , , , , 
*Controls, parameters=field, field=pore fluid pressure
0.075, 0.075, , , , , , 
** 
** OUTPUT REQUESTS
** 
*Restart, write, overlay, frequency=1
** 
** FIELD OUTPUT: F-Output-8
** 
*Output, field
*Node Output
CF, POR, RF, U
** 
** FIELD OUTPUT: F-Output-7
** 
*Element Output, directions=YES
FLUVR, FLVEL, LE, S, SDV, VOIDR
** 
** HISTORY OUTPUT: H-Output-3
** 
*Output, history, variable=PRESELECT
*End Step
** ----------------------------------------------------------------
** 
** STEP: Carga_dia
** 
*Step, name=Carga_dia, nlgeom=YES, amplitude=RAMP, inc=1000
*Soils, consolidation, end=PERIOD, utol=5.
0.1, 10., 0.0001, 10., 
** 
** OUTPUT REQUESTS
** 
*Restart, write, overlay, frequency=1
** 
** FIELD OUTPUT: F-Output-11
** 
*Output, field
*Node Output
CF, POR, RF, U
** 
** FIELD OUTPUT: F-Output-9
** 
*Element Output, rebar, directions=YES
FLUVR, FLVEL, LE, RBANG, RBFOR, RBROT, S, VOIDR
** 
** FIELD OUTPUT: F-Output-10
** 
*Element Output, directions=YES
FLUVR, FLVEL, LE, S, SDV, VOIDR
** 
** HISTORY OUTPUT: H-Output-4
** 
*Output, history, variable=PRESELECT
*End Step
** ----------------------------------------------------------------
** 
** STEP: Creep_dia
** 
*Step, name=Creep_dia, nlgeom=YES, inc=1000
*Soils, consolidation, end=PERIOD, utol=5.
2.5, 57590., 0.001, 57590., 
** 
** OUTPUT REQUESTS
** 
*Restart, write, overlay, frequency=1
** 
** FIELD OUTPUT: F-Output-14
** 
*Output, field
*Node Output
CF, POR, RF, U
** 
** FIELD OUTPUT: F-Output-12
** 
*Element Output, rebar, directions=YES
FLUVR, FLVEL, LE, RBANG, RBFOR, RBROT, S, VOIDR
** 
** FIELD OUTPUT: F-Output-13
** 
*Element Output, directions=YES
FLUVR, FLVEL, LE, S, SDV, VOIDR
** 
** HISTORY OUTPUT: H-Output-5
** 
*Output, history, variable=PRESELECT
*End Step
