*Heading
** Job name: AFTemplate Model name: L4-L5
** Generated by: Abaqus/CAE 2019
*Preprint, echo=NO, model=NO, history=NO, contact=NO
**
** PARTS
**
*Part, name=PART-1
*Node
*Element, type=C3D20P
   1,      1,      7,      9,      3,      2,      8,     10,      4, 155694, 139373, 155693, 153131, 155695, 139375, 155696,
      153133, 153011, 139376, 139374, 153132
   2,      3,      9,     11,      5,      4,     10,     12,      6, 155693, 139377, 155697, 153134, 155696, 139379, 155698,
      153136, 153132, 139374, 139378, 153135
   3,      7,     19,     21,      9,      8,     20,     22,     10, 155700, 139380, 155699, 139373, 155701, 139382, 155702,
      139375, 139376, 139383, 139381, 139374
   4,      9,     21,     23,     11,     10,     22,     24,     12, 155699, 139384, 155703, 139377, 155702, 139386, 155704,
      139379, 139374, 139381, 139385, 139378
   5,     19,     31,     33,     21,     20,     32,     34,     22, 155706, 139387, 155705, 139380, 155707, 139389, 155708,
      139382, 139383, 139390, 139388, 139381
   6,     21,     33,     35,     23,     22,     34,     36,     24, 155705, 139391, 155709, 139384, 155708, 139393, 155710,
      139386, 139381, 139388, 139392, 139385
   7,      5,     11,     45,     39,      6,     12,     46,     40, 155697, 139394, 155711, 153143, 155698, 139396, 155712,
      153145, 153135, 139378, 139395, 153144
   8,     39,     45,     47,     41,     40,     46,     48,     42, 155711, 139397, 155713, 153146, 155712, 139399, 155714,
      153148, 153144, 139395, 139398, 153147
   9,     11,     23,     57,     45,     12,     24,     58,     46, 155703, 139400, 155715, 139394, 155704, 139402, 155716,
      139396, 139378, 139385, 139401, 139395
  10,     45,     57,     59,     47,     46,     58,     60,     48, 155715, 139403, 155717, 139397, 155716, 139405, 155718,
      139399, 139395, 139401, 139404, 139398
** ... 14060 like lines cut
*Element, type=SFM3D8
26497,      7,      9,     10,      8, 139373, 139374, 139375, 139376
26498,      9,     11,     12,     10, 139377, 139378, 139379, 139374
26499,     19,     21,     22,     20, 139380, 139381, 139382, 139383
26500,     21,     23,     24,     22, 139384, 139385, 139386, 139381
26501,     31,     33,     34,     32, 139387, 139388, 139389, 139390
26502,     33,     35,     36,     34, 139391, 139392, 139393, 139388
26503,     11,     45,     46,     12, 139394, 139395, 139396, 139378
26504,     45,     47,     48,     46, 139397, 139398, 139399, 139395
26505,     23,     57,     58,     24, 139400, 139401, 139402, 139385
26506,     57,     59,     60,     58, 139403, 139404, 139405, 139401
26507,     35,     69,     70,     36, 139406, 139407, 139408, 139392
26508,     69,     71,     72,     70, 139409, 139410, 139411, 139407
26509,      8,     10,     82,     80, 139375, 139412, 139413, 139414
26510,     10,     12,     84,     82, 139379, 139415, 139416, 139412
26511,     20,     22,     94,     92, 139382, 139417, 139418, 139419
26512,     22,     24,     96,     94, 139386, 139420, 139421, 139417
26513,     32,     34,    106,    104, 139389, 139422, 139423, 139424
26514,     34,     36,    108,    106, 139393, 139425, 139426, 139422
26515,     12,     46,    118,     84, 139396, 139427, 139428, 139415
26516,     46,     48,    120,    118, 139399, 139429, 139430, 139427
** ... 7660 like lines cut
*Nset, nset=PART-1-REFPT_, internal
 223169,
*Elset, elset=AF, generate
    1,  5760,     1
*Elset, elset=AF-Z1
 5763, 5764, 5767, 5768, 5771, 5772, 5775, 5776, 5779, 5780, 5783, 5784, 5787, 5788, 5791, 5792
 5795, 5796, 5799, 5800, 5803, 5804, 5807, 5808, 5811, 5812, 5815, 5816, 5819, 5820, 5823, 5824
 5827, 5828, 5831, 5832, 5835, 5836, 5839, 5840, 5843, 5844, 5847, 5848, 5851, 5852, 5855, 5856
 5859, 5860, 5863, 5864, 5867, 5868, 5871, 5872, 5875, 5876, 5879, 5880, 5883, 5884, 5887, 5888
 5891, 5892, 5895, 5896, 5899, 5900, 5903, 5904, 5907, 5908, 5911, 5912, 5915, 5916, 5919, 5920
 5923, 5924, 5927, 5928, 5931, 5932, 5935, 5936, 5939, 5940, 5943, 5944, 5947, 5948, 5951, 5952
 5955, 5956, 5959, 5960, 5963, 5964, 5967, 5968, 5971, 5972, 5975, 5976, 5979, 5980, 5983, 5984
 5987, 5988, 5991, 5992, 5995, 5996, 5999, 6000, 6003, 6004, 6007, 6008, 6011, 6012, 6015, 6016
 6019, 6020, 6023, 6024, 6027, 6028, 6031, 6032, 6035, 6036, 6039, 6040, 6043, 6044, 6047, 6048
 6051, 6052, 6055, 6056, 6059, 6060, 6063, 6064, 6067, 6068, 6071, 6072, 6075, 6076, 6079, 6080
 6083, 6084, 6087, 6088, 6091, 6092, 6095, 6096, 6099, 6100, 6103, 6104, 6107, 6108, 6111, 6112
 6115, 6116, 6119, 6120, 6123, 6124, 6127, 6128, 6131, 6132, 6135, 6136, 6139, 6140, 6143, 6144
 6147, 6148, 6151, 6152, 6155, 6156, 6159, 6160, 6163, 6164, 6167, 6168, 6171, 6172, 6175, 6176
 6179, 6180, 6183, 6184, 6187, 6188, 6191, 6192, 6195, 6196, 6199, 6200, 6203, 6204, 6207, 6208
 6211, 6212, 6215, 6216, 6219, 6220, 6223, 6224, 6227, 6228, 6231, 6232, 6235, 6236, 6239, 6240
 6243, 6244, 6247, 6248, 6251, 6252, 6255, 6256, 6259, 6260, 6263, 6264, 6267, 6268, 6271, 6272
 6275, 6276, 6279, 6280, 6283, 6284, 6287, 6288, 6291, 6292, 6295, 6296, 6299, 6300, 6303, 6304
 6307, 6308, 6311, 6312, 6315, 6316, 6319, 6320, 6323, 6324, 6327, 6328, 6331, 6332, 6335, 6336
 6339, 6340, 6343, 6344, 6347, 6348, 6351, 6352, 6355, 6356, 6359, 6360, 6363, 6364, 6367, 6368
 6371, 6372, 6375, 6376, 6379, 6380, 6383, 6384, 6387, 6388, 6391, 6392, 6395, 6396, 6399, 6400
** ... 20 like lines cut
*Elset, elset=AF-Z2
 5761, 5762, 5765, 5766, 5769, 5770, 5773, 5774, 5777, 5778, 5781, 5782, 5785, 5786, 5789, 5790
 5793, 5794, 5797, 5798, 5801, 5802, 5805, 5806, 5809, 5810, 5813, 5814, 5817, 5818, 5821, 5822
 5825, 5826, 5829, 5830, 5833, 5834, 5837, 5838, 5841, 5842, 5845, 5846, 5849, 5850, 5853, 5854
 5857, 5858, 5861, 5862, 5865, 5866, 5869, 5870, 5873, 5874, 5877, 5878, 5881, 5882, 5885, 5886
 5889, 5890, 5893, 5894, 5897, 5898, 5901, 5902, 5905, 5906, 5909, 5910, 5913, 5914, 5917, 5918
 5921, 5922, 5925, 5926, 5929, 5930, 5933, 5934, 5937, 5938, 5941, 5942, 5945, 5946, 5949, 5950
 5953, 5954, 5957, 5958, 5961, 5962, 5965, 5966, 5969, 5970, 5973, 5974, 5977, 5978, 5981, 5982
 5985, 5986, 5989, 5990, 5993, 5994, 5997, 5998, 6001, 6002, 6005, 6006, 6009, 6010, 6013, 6014
 6017, 6018, 6021, 6022, 6025, 6026, 6029, 6030, 6033, 6034, 6037, 6038, 6041, 6042, 6045, 6046
 6049, 6050, 6053, 6054, 6057, 6058, 6061, 6062, 6065, 6066, 6069, 6070, 6073, 6074, 6077, 6078
 6081, 6082, 6085, 6086, 6089, 6090, 6093, 6094, 6097, 6098, 6101, 6102, 6105, 6106, 6109, 6110
 6113, 6114, 6117, 6118, 6121, 6122, 6125, 6126, 6129, 6130, 6133, 6134, 6137, 6138, 6141, 6142
 6145, 6146, 6149, 6150, 6153, 6154, 6157, 6158, 6161, 6162, 6165, 6166, 6169, 6170, 6173, 6174
 6177, 6178, 6181, 6182, 6185, 6186, 6189, 6190, 6193, 6194, 6197, 6198, 6201, 6202, 6205, 6206
 6209, 6210, 6213, 6214, 6217, 6218, 6221, 6222, 6225, 6226, 6229, 6230, 6233, 6234, 6237, 6238
 6241, 6242, 6245, 6246, 6249, 6250, 6253, 6254, 6257, 6258, 6261, 6262, 6265, 6266, 6269, 6270
 6273, 6274, 6277, 6278, 6281, 6282, 6285, 6286, 6289, 6290, 6293, 6294, 6297, 6298, 6301, 6302
 6305, 6306, 6309, 6310, 6313, 6314, 6317, 6318, 6321, 6322, 6325, 6326, 6329, 6330, 6333, 6334
 6337, 6338, 6341, 6342, 6345, 6346, 6349, 6350, 6353, 6354, 6357, 6358, 6361, 6362, 6365, 6366
 6369, 6370, 6373, 6374, 6377, 6378, 6381, 6382, 6385, 6386, 6389, 6390, 6393, 6394, 6397, 6398
** ... 20 like lines cut
*Elset, elset=AF_REBARS, generate
 26497,  34176,      1
*Elset, elset=REBARS_AI
 26785, 26786, 26787, 26788, 26789, 26790, 26791, 26792, 26793, 26794, 26795, 26796, 26797, 26798, 26799, 26800
 26801, 26802, 26803, 26804, 26805, 26806, 26807, 26808, 26809, 26810, 26811, 26812, 26813, 26814, 26815, 26816
 26817, 26818, 26819, 26820, 26821, 26822, 26823, 26824, 26825, 26826, 26827, 26828, 26829, 26830, 26831, 26832
 26833, 26834, 26835, 26836, 26837, 26838, 26839, 26840, 26841, 26842, 26843, 26844, 26845, 26846, 26847, 26848
 26849, 26850, 26851, 26852, 26853, 26854, 26855, 26856, 26857, 26858, 26859, 26860, 26861, 26862, 26863, 26864
 26865, 26866, 26867, 26868, 26869, 26870, 26871, 26872, 26873, 26874, 26875, 26876, 26877, 26878, 26879, 26880
 26881, 26882, 26883, 26884, 26885, 26886, 26887, 26888, 26889, 26890, 26891, 26892, 26893, 26894, 26895, 26896
 26897, 26898, 26899, 26900, 26901, 26902, 26903, 26904, 26905, 26906, 26907, 26908, 26909, 26910, 26911, 26912
 26913, 26914, 26915, 26916, 26917, 26918, 26919, 26920, 26921, 26922, 26923, 26924, 26925, 26926, 26927, 26928
 26929, 26930, 26931, 26932, 26933, 26934, 26935, 26936, 26937, 26938, 26939, 26940, 26941, 26942, 26943, 26944
 26945, 26946, 26947, 26948, 26949, 26950, 26951, 26952, 26953, 26954, 26955, 26956, 26957, 26958, 26959, 26960
 26961, 26962, 26963, 26964, 26965, 26966, 26967, 26968, 26969, 26970, 26971, 26972, 26973, 26974, 26975, 26976
 26977, 26978, 26979, 26980, 26981, 26982, 26983, 26984, 26985, 26986, 26987, 26988, 26989, 26990, 26991, 26992
 26993, 26994, 26995, 26996, 26997, 26998, 26999, 27000, 27001, 27002, 27003, 27004, 27005, 27006, 27007, 27008
 27009, 27010, 27011, 27012, 27013, 27014, 27015, 27016, 27017, 27018, 27019, 27020, 27021, 27022, 27023, 27024
 27025, 27026, 27027, 27028, 27029, 27030, 27031, 27032, 27033, 27034, 27035, 27036, 27037, 27038, 27039, 27040
 27041, 27042, 27043, 27044, 27045, 27046, 27047, 27048, 27049, 27050, 27051, 27052, 27053, 27054, 27055, 27056
 27057, 27058, 27059, 27060, 27061, 27062, 27063, 27064, 27065, 27066, 27067, 27068, 27069, 27070, 27071, 27072
 27073, 27074, 27075, 27076, 27077, 27078, 27079, 27080, 27081, 27082, 27083, 27084, 27085, 27086, 27087, 27088
 27089, 27090, 27091, 27092, 27093, 27094, 27095, 27096, 27097, 27098, 27099, 27100, 27101, 27102, 27103, 27104
** ... 52 like lines cut
*Elset, elset=REBARS_AO
 28705, 28706, 28707, 28708, 28709, 28710, 28711, 28712, 28713, 28714, 28715, 28716, 28717, 28718, 28719, 28720
 28721, 28722, 28723, 28724, 28725, 28726, 28727, 28728, 28729, 28730, 28731, 28732, 28733, 28734, 28735, 28736
 28737, 28738, 28739, 28740, 28741, 28742, 28743, 28744, 28745, 28746, 28747, 28748, 28749, 28750, 28751, 28752
 28753, 28754, 28755, 28756, 28757, 28758, 28759, 28760, 28761, 28762, 28763, 28764, 28765, 28766, 28767, 28768
 28769, 28770, 28771, 28772, 28773, 28774, 28775, 28776, 28777, 28778, 28779, 28780, 28781, 28782, 28783, 28784
 28785, 28786, 28787, 28788, 28789, 28790, 28791, 28792, 28793, 28794, 28795, 28796, 28797, 28798, 28799, 28800
 28801, 28802, 28803, 28804, 28805, 28806, 28807, 28808, 28809, 28810, 28811, 28812, 28813, 28814, 28815, 28816
 28817, 28818, 28819, 28820, 28821, 28822, 28823, 28824, 28825, 28826, 28827, 28828, 28829, 28830, 28831, 28832
 28833, 28834, 28835, 28836, 28837, 28838, 28839, 28840, 28841, 28842, 28843, 28844, 28845, 28846, 28847, 28848
 28849, 28850, 28851, 28852, 28853, 28854, 28855, 28856, 28857, 28858, 28859, 28860, 28861, 28862, 28863, 28864
 28865, 28866, 28867, 28868, 28869, 28870, 28871, 28872, 28873, 28874, 28875, 28876, 28877, 28878, 28879, 28880
 28881, 28882, 28883, 28884, 28885, 28886, 28887, 28888, 28889, 28890, 28891, 28892, 28893, 28894, 28895, 28896
 28897, 28898, 28899, 28900, 28901, 28902, 28903, 28904, 28905, 28906, 28907, 28908, 28909, 28910, 28911, 28912
 28913, 28914, 28915, 28916, 28917, 28918, 28919, 28920, 28921, 28922, 28923, 28924, 28925, 28926, 28927, 28928
 28929, 28930, 28931, 28932, 28933, 28934, 28935, 28936, 28937, 28938, 28939, 28940, 28941, 28942, 28943, 28944
 28945, 28946, 28947, 28948, 28949, 28950, 28951, 28952, 28953, 28954, 28955, 28956, 28957, 28958, 28959, 28960
 28961, 28962, 28963, 28964, 28965, 28966, 28967, 28968, 28969, 28970, 28971, 28972, 28973, 28974, 28975, 28976
 28977, 28978, 28979, 28980, 28981, 28982, 28983, 28984, 28985, 28986, 28987, 28988, 28989, 28990, 28991, 28992
 28993, 28994, 28995, 28996, 28997, 28998, 28999, 29000, 29001, 29002, 29003, 29004, 29005, 29006, 29007, 29008
 29009, 29010, 29011, 29012, 29013, 29014, 29015, 29016, 29017, 29018, 29019, 29020, 29021, 29022, 29023, 29024
** ... 52 like lines cut
*Elset, elset=REBARS_PI
 26497, 26498, 26499, 26500, 26501, 26502, 26503, 26504, 26505, 26506, 26507, 26508, 26509, 26510, 26511, 26512
 26513, 26514, 26515, 26516, 26517, 26518, 26519, 26520, 26521, 26522, 26523, 26524, 26525, 26526, 26527, 26528
 26529, 26530, 26531, 26532, 26533, 26534, 26535, 26536, 26537, 26538, 26539, 26540, 26541, 26542, 26543, 26544
 26545, 26546, 26547, 26548, 26549, 26550, 26551, 26552, 26553, 26554, 26555, 26556, 26557, 26558, 26559, 26560
 26561, 26562, 26563, 26564, 26565, 26566, 26567, 26568, 26569, 26570, 26571, 26572, 26573, 26574, 26575, 26576
 26577, 26578, 26579, 26580, 26581, 26582, 26583, 26584, 26585, 26586, 26587, 26588, 26589, 26590, 26591, 26592
 26593, 26594, 26595, 26596, 26597, 26598, 26599, 26600, 26601, 26602, 26603, 26604, 26605, 26606, 26607, 26608
 26609, 26610, 26611, 26612, 26613, 26614, 26615, 26616, 26617, 26618, 26619, 26620, 26621, 26622, 26623, 26624
 26625, 26626, 26627, 26628, 26629, 26630, 26631, 26632, 26633, 26634, 26635, 26636, 26637, 26638, 26639, 26640
 26641, 26642, 26643, 26644, 26645, 26646, 26647, 26648, 26649, 26650, 26651, 26652, 26653, 26654, 26655, 26656
 26657, 26658, 26659, 26660, 26661, 26662, 26663, 26664, 26665, 26666, 26667, 26668, 26669, 26670, 26671, 26672
 26673, 26674, 26675, 26676, 26677, 26678, 26679, 26680, 26681, 26682, 26683, 26684, 26685, 26686, 26687, 26688
 26689, 26690, 26691, 26692, 26693, 26694, 26695, 26696, 26697, 26698, 26699, 26700, 26701, 26702, 26703, 26704
 26705, 26706, 26707, 26708, 26709, 26710, 26711, 26712, 26713, 26714, 26715, 26716, 26717, 26718, 26719, 26720
 26721, 26722, 26723, 26724, 26725, 26726, 26727, 26728, 26729, 26730, 26731, 26732, 26733, 26734, 26735, 26736
 26737, 26738, 26739, 26740, 26741, 26742, 26743, 26744, 26745, 26746, 26747, 26748, 26749, 26750, 26751, 26752
 26753, 26754, 26755, 26756, 26757, 26758, 26759, 26760, 26761, 26762, 26763, 26764, 26765, 26766, 26767, 26768
 26769, 26770, 26771, 26772, 26773, 26774, 26775, 26776, 26777, 26778, 26779, 26780, 26781, 26782, 26783, 26784
 27361, 27362, 27363, 27364, 27365, 27366, 27367, 27368, 27369, 27370, 27371, 27372, 27373, 27374, 27375, 27376
 27377, 27378, 27379, 27380, 27381, 27382, 27383, 27384, 27385, 27386, 27387, 27388, 27389, 27390, 27391, 27392
** ... 148 like lines cut
*Elset, elset=REBARS_PO
 28417, 28418, 28419, 28420, 28421, 28422, 28423, 28424, 28425, 28426, 28427, 28428, 28429, 28430, 28431, 28432
 28433, 28434, 28435, 28436, 28437, 28438, 28439, 28440, 28441, 28442, 28443, 28444, 28445, 28446, 28447, 28448
 28449, 28450, 28451, 28452, 28453, 28454, 28455, 28456, 28457, 28458, 28459, 28460, 28461, 28462, 28463, 28464
 28465, 28466, 28467, 28468, 28469, 28470, 28471, 28472, 28473, 28474, 28475, 28476, 28477, 28478, 28479, 28480
 28481, 28482, 28483, 28484, 28485, 28486, 28487, 28488, 28489, 28490, 28491, 28492, 28493, 28494, 28495, 28496
 28497, 28498, 28499, 28500, 28501, 28502, 28503, 28504, 28505, 28506, 28507, 28508, 28509, 28510, 28511, 28512
 28513, 28514, 28515, 28516, 28517, 28518, 28519, 28520, 28521, 28522, 28523, 28524, 28525, 28526, 28527, 28528
 28529, 28530, 28531, 28532, 28533, 28534, 28535, 28536, 28537, 28538, 28539, 28540, 28541, 28542, 28543, 28544
 28545, 28546, 28547, 28548, 28549, 28550, 28551, 28552, 28553, 28554, 28555, 28556, 28557, 28558, 28559, 28560
 28561, 28562, 28563, 28564, 28565, 28566, 28567, 28568, 28569, 28570, 28571, 28572, 28573, 28574, 28575, 28576
 28577, 28578, 28579, 28580, 28581, 28582, 28583, 28584, 28585, 28586, 28587, 28588, 28589, 28590, 28591, 28592
 28593, 28594, 28595, 28596, 28597, 28598, 28599, 28600, 28601, 28602, 28603, 28604, 28605, 28606, 28607, 28608
 28609, 28610, 28611, 28612, 28613, 28614, 28615, 28616, 28617, 28618, 28619, 28620, 28621, 28622, 28623, 28624
 28625, 28626, 28627, 28628, 28629, 28630, 28631, 28632, 28633, 28634, 28635, 28636, 28637, 28638, 28639, 28640
 28641, 28642, 28643, 28644, 28645, 28646, 28647, 28648, 28649, 28650, 28651, 28652, 28653, 28654, 28655, 28656
 28657, 28658, 28659, 28660, 28661, 28662, 28663, 28664, 28665, 28666, 28667, 28668, 28669, 28670, 28671, 28672
 28673, 28674, 28675, 28676, 28677, 28678, 28679, 28680, 28681, 28682, 28683, 28684, 28685, 28686, 28687, 28688
 28689, 28690, 28691, 28692, 28693, 28694, 28695, 28696, 28697, 28698, 28699, 28700, 28701, 28702, 28703, 28704
 29281, 29282, 29283, 29284, 29285, 29286, 29287, 29288, 29289, 29290, 29291, 29292, 29293, 29294, 29295, 29296
 29297, 29298, 29299, 29300, 29301, 29302, 29303, 29304, 29305, 29306, 29307, 29308, 29309, 29310, 29311, 29312
** ... 148 like lines cut
*Nset, nset=ND-BEP-M
    463,    465,    467,    501,    503,   1039,   1041,   1043,   1077,   1615,   1617,   1619,   1653,   2191,   2193,   2195
   2229,   2767,   2769,   2771,   2805,   3343,   3345,   3347,   3381,   3994,   3996,   4030,   4032,   4570,   4572,   4606
   4608,   5146,   5148,   5182,   5184,   5722,   5724,   5758,   5760,   6298,   6300,   6334,   6336,   6874,   6876,   6910
   6912,   7377,   7379,   7413,   7415,   7953,   7955,   7989,   7991,   8529,   8531,   8565,   8567,   9105,   9107,   9141
   9143,   9754,   9756,   9790,   9792,  10330,  10332,  10366,  10368,  10906,  10908,  10942,  10944,  11482,  11484,  11518
  11527,  11529,  11531,  11539,  11541,  11543,  11551,  11553,  11555,  11565,  11567,  11577,  11579,  11589,  11591,  12535
  12537,  12539,  12547,  12549,  12551,  12559,  12561,  12563,  12573,  12585,  12597,  13111,  13113,  13115,  13123,  13125
  13127,  13135,  13137,  13139,  13149,  13161,  13173,  13687,  13689,  13691,  13699,  13701,  13703,  13711,  13713,  13715
  13725,  13737,  13749,  14263,  14265,  14267,  14275,  14277,  14279,  14287,  14289,  14291,  14301,  14313,  14325,  14839
  14841,  14843,  14851,  14853,  14855,  14863,  14865,  14867,  14877,  14889,  14901,  15490,  15492,  15502,  15504,  15514
  15516,  15526,  15528,  15538,  15540,  15550,  15552,  16066,  16068,  16078,  16080,  16090,  16092,  16102,  16104,  16114
  16116,  16126,  16128,  16642,  16644,  16654,  16656,  16666,  16668,  16678,  16680,  16690,  16692,  16702,  16704,  17218
  17220,  17230,  17232,  17242,  17244,  17254,  17256,  17266,  17268,  17278,  17280,  17794,  17796,  17806,  17808,  17818
  17820,  17830,  17832,  17842,  17844,  17854,  17856,  18370,  18372,  18382,  18384,  18394,  18396,  18406,  18408,  18418
  18420,  18430,  18432,  18873,  18875,  18885,  18887,  18897,  18899,  18909,  18911,  18921,  18923,  18933,  18935,  19449
  19451,  19461,  19463,  19473,  19475,  19485,  19487,  19497,  19499,  19509,  19511,  20025,  20027,  20037,  20039,  20049
  20051,  20061,  20063,  20073,  20075,  20085,  20087,  20601,  20603,  20613,  20615,  20625,  20627,  20637,  20639,  20649
  20651,  20661,  20663,  21250,  21252,  21262,  21264,  21274,  21276,  21286,  21288,  21298,  21300,  21310,  21312,  21826
  21828,  21838,  21840,  21850,  21852,  21862,  21864,  21874,  21876,  21886,  21888,  22402,  22404,  22414,  22416,  22426
  22428,  22438,  22440,  22450,  22452,  22462,  22464,  22978,  22980,  22990,  22992,  23002,  23004,  23014,  23026,  23038
** ... 80 like lines cut
*Nset, nset=ND-BEP-F
    104,    106,    108,    142,    144,    680,    682,    684,    718,   1256,   1258,   1260,   1294,   1832,   1834,   1836
   1870,   2408,   2410,   2412,   2446,   2984,   2986,   2988,   3022,   3489,   3491,   3525,   3527,   4065,   4067,   4101
   4103,   4641,   4643,   4677,   4679,   5217,   5219,   5253,   5255,   5793,   5795,   5829,   5831,   6369,   6371,   6405
   6407,   7018,   7020,   7054,   7056,   7594,   7596,   7630,   7632,   8170,   8172,   8206,   8208,   8746,   8748,   8782
   8784,   9249,   9251,   9285,   9287,   9825,   9827,   9861,   9863,  10401,  10403,  10437,  10439,  10977,  10979,  11013
  11672,  11674,  11676,  11684,  11686,  11688,  11696,  11698,  11700,  11710,  11712,  11722,  11724,  11734,  11736,  12176
  12178,  12180,  12188,  12190,  12192,  12200,  12202,  12204,  12214,  12226,  12238,  12752,  12754,  12756,  12764,  12766
  12768,  12776,  12778,  12780,  12790,  12802,  12814,  13328,  13330,  13332,  13340,  13342,  13344,  13352,  13354,  13356
  13366,  13378,  13390,  13904,  13906,  13908,  13916,  13918,  13920,  13928,  13930,  13932,  13942,  13954,  13966,  14480
  14482,  14484,  14492,  14494,  14496,  14504,  14506,  14508,  14518,  14530,  14542,  14985,  14987,  14997,  14999,  15009
  15011,  15021,  15023,  15033,  15035,  15045,  15047,  15561,  15563,  15573,  15575,  15585,  15587,  15597,  15599,  15609
  15611,  15621,  15623,  16137,  16139,  16149,  16151,  16161,  16163,  16173,  16175,  16185,  16187,  16197,  16199,  16713
  16715,  16725,  16727,  16737,  16739,  16749,  16751,  16761,  16763,  16773,  16775,  17289,  17291,  17301,  17303,  17313
  17315,  17325,  17327,  17337,  17339,  17349,  17351,  17865,  17867,  17877,  17879,  17889,  17891,  17901,  17903,  17913
  17915,  17925,  17927,  18514,  18516,  18526,  18528,  18538,  18540,  19128,  19140,  19152,  19666,  19668,  19678,  19680
  19690,  19692,  19702,  19704,  19714,  19716,  19726,  19728,  20242,  20244,  20254,  20256,  20266,  20268,  20278,  20280
  20290,  20292,  20302,  20304,  20745,  20747,  20757,  20759,  20769,  20771,  20781,  20783,  20793,  20795,  20805,  20807
  21321,  21323,  21333,  21335,  21345,  21347,  21357,  21359,  21369,  21371,  21381,  21383,  21897,  21899,  21909,  21911
  21921,  21923,  21933,  21935,  21945,  21947,  21957,  21959,  22473,  22475,  22485,  22487,  22497,  22499,  22509,  22521
  22533,  23047,  23049,  23051,  23059,  23061,  23063,  23071,  23073,  23075,  23085,  23087,  23097,  23099,  23109,  23111
** ... 75 like lines cut
*Nset, nset=ND-BEP
    104,    106,    108,    142,    144,    463,    465,    467,    501,    503,    680,    682,    684,    718,   1039,   1041
   1043,   1077,   1256,   1258,   1260,   1294,   1615,   1617,   1619,   1653,   1832,   1834,   1836,   1870,   2191,   2193
   2195,   2229,   2408,   2410,   2412,   2446,   2767,   2769,   2771,   2805,   2984,   2986,   2988,   3022,   3343,   3345
   3347,   3381,   3489,   3491,   3525,   3527,   3994,   3996,   4030,   4032,   4065,   4067,   4101,   4103,   4570,   4572
   4606,   4608,   4641,   4643,   4677,   4679,   5146,   5148,   5182,   5184,   5217,   5219,   5253,   5255,   5722,   5724
   5758,   5760,   5793,   5795,   5829,   5831,   6298,   6300,   6334,   6336,   6369,   6371,   6405,   6407,   6874,   6876
   6910,   6912,   7018,   7020,   7054,   7056,   7377,   7379,   7413,   7415,   7594,   7596,   7630,   7632,   7953,   7955
   7989,   7991,   8170,   8172,   8206,   8208,   8529,   8531,   8565,   8567,   8746,   8748,   8782,   8784,   9105,   9107
   9141,   9143,   9249,   9251,   9285,   9287,   9754,   9756,   9790,   9792,   9825,   9827,   9861,   9863,  10330,  10332
  10366,  10368,  10401,  10403,  10437,  10439,  10906,  10908,  10942,  10944,  10977,  10979,  11013,  11482,  11484,  11518
  11527,  11529,  11531,  11539,  11541,  11543,  11551,  11553,  11555,  11565,  11567,  11577,  11579,  11589,  11591,  11672
  11674,  11676,  11684,  11686,  11688,  11696,  11698,  11700,  11710,  11712,  11722,  11724,  11734,  11736,  12176,  12178
  12180,  12188,  12190,  12192,  12200,  12202,  12204,  12214,  12226,  12238,  12535,  12537,  12539,  12547,  12549,  12551
  12559,  12561,  12563,  12573,  12585,  12597,  12752,  12754,  12756,  12764,  12766,  12768,  12776,  12778,  12780,  12790
  12802,  12814,  13111,  13113,  13115,  13123,  13125,  13127,  13135,  13137,  13139,  13149,  13161,  13173,  13328,  13330
  13332,  13340,  13342,  13344,  13352,  13354,  13356,  13366,  13378,  13390,  13687,  13689,  13691,  13699,  13701,  13703
  13711,  13713,  13715,  13725,  13737,  13749,  13904,  13906,  13908,  13916,  13918,  13920,  13928,  13930,  13932,  13942
  13954,  13966,  14263,  14265,  14267,  14275,  14277,  14279,  14287,  14289,  14291,  14301,  14313,  14325,  14480,  14482
  14484,  14492,  14494,  14496,  14504,  14506,  14508,  14518,  14530,  14542,  14839,  14841,  14843,  14851,  14853,  14855
  14863,  14865,  14867,  14877,  14889,  14901,  14985,  14987,  14997,  14999,  15009,  15011,  15021,  15023,  15033,  15035
** ... 175 like lines cut
*Nset, nset=ND-AF
      1,      2,      3,      4,      5,      6,      7,      8,      9,     10,     11,     12,     19,     20,     21,     22
     23,     24,     31,     32,     33,     34,     35,     36,     39,     40,     41,     42,     45,     46,     47,     48
     57,     58,     59,     60,     69,     70,     71,     72,     74,     76,     78,     80,     82,     84,     92,     94
     96,    104,    106,    108,    112,    114,    118,    120,    130,    132,    142,    144,    145,    146,    147,    148
    149,    150,    151,    152,    153,    154,    155,    156,    163,    164,    165,    166,    167,    168,    175,    176
    177,    178,    179,    180,    183,    184,    185,    186,    189,    190,    191,    192,    201,    202,    203,    204
    213,    214,    215,    216,    289,    290,    291,    292,    293,    294,    295,    296,    297,    298,    299,    300
    307,    308,    309,    310,    311,    312,    319,    320,    321,    322,    323,    324,    327,    328,    329,    330
    333,    334,    335,    336,    345,    346,    347,    348,    357,    358,    359,    360,    433,    434,    435,    436
    437,    438,    439,    440,    441,    442,    443,    444,    451,    452,    453,    454,    455,    456,    463,    464
    465,    466,    467,    468,    471,    472,    473,    474,    477,    478,    479,    480,    489,    490,    491,    492
    501,    502,    503,    504,    577,    578,    579,    580,    581,    582,    583,    584,    585,    586,    587,    588
    595,    596,    597,    598,    599,    600,    607,    608,    609,    610,    611,    612,    615,    616,    621,    622
    633,    634,    645,    646,    650,    652,    654,    656,    658,    660,    668,    670,    672,    680,    682,    684
    688,    694,    706,    718,    721,    722,    723,    724,    725,    726,    727,    728,    729,    730,    731,    732
    739,    740,    741,    742,    743,    744,    751,    752,    753,    754,    755,    756,    759,    760,    765,    766
    777,    778,    789,    790,    865,    866,    867,    868,    869,    870,    871,    872,    873,    874,    875,    876
    883,    884,    885,    886,    887,    888,    895,    896,    897,    898,    899,    900,    903,    904,    909,    910
    921,    922,    933,    934,   1009,   1010,   1011,   1012,   1013,   1014,   1015,   1016,   1017,   1018,   1019,   1020
   1027,   1028,   1029,   1030,   1031,   1032,   1039,   1040,   1041,   1042,   1043,   1044,   1047,   1048,   1053,   1054
** ... 2035 like lines cut
*Nset, nset=ND-NP
  34561,  34562,  34563,  34564,  34565,  34566,  34587,  34588,  34589,  34590,  34609,  34610,  34611,  34612,  34613,  34614
  34635,  34636,  34637,  34638,  34658,  34660,  34662,  34684,  34686,  34706,  34708,  34710,  34732,  34734,  34754,  34756
  34758,  34780,  34782,  34802,  34804,  34806,  34828,  34830,  34850,  34852,  34854,  34876,  34878,  34945,  34946,  34947
  34948,  34949,  34950,  34971,  34972,  34994,  34996,  34998,  35020,  35042,  35044,  35046,  35068,  35090,  35092,  35094
  35116,  35138,  35140,  35142,  35164,  35186,  35188,  35190,  35212,  35234,  35236,  35238,  35260,  35282,  35284,  35286
  35308,  35329,  35330,  35331,  35332,  35333,  35334,  35355,  35356,  35378,  35380,  35382,  35404,  35426,  35428,  35430
  35452,  35474,  35476,  35478,  35500,  35522,  35524,  35526,  35548,  35570,  35572,  35574,  35596,  35618,  35620,  35622
  35644,  35666,  35668,  35670,  35692,  35713,  35714,  35715,  35716,  35717,  35718,  35739,  35740,  35762,  35764,  35766
  35788,  35810,  35812,  35814,  35836,  35858,  35860,  35862,  35884,  35906,  35908,  35910,  35932,  35954,  35956,  35958
  35980,  36002,  36004,  36006,  36028,  36050,  36052,  36054,  36076,  36097,  36098,  36099,  36100,  36101,  36102,  36123
  36124,  36146,  36148,  36150,  36172,  36194,  36196,  36198,  36220,  36242,  36244,  36246,  36268,  36290,  36292,  36294
  36316,  36338,  36340,  36342,  36364,  36386,  36388,  36390,  36412,  36434,  36436,  36438,  36460,  36481,  36482,  36483
  36484,  36485,  36486,  36507,  36508,  36530,  36532,  36534,  36556,  36578,  36580,  36582,  36604,  36626,  36628,  36630
  36652,  36674,  36676,  36678,  36700,  36722,  36724,  36726,  36748,  36770,  36772,  36774,  36796,  36818,  36820,  36822
  36844,  36867,  36868,  36869,  36870,  36891,  36892,  36893,  36894,  36916,  36918,  36940,  36942,  36963,  36964,  36965
  36966,  36987,  36988,  36989,  36990,  37059,  37060,  37061,  37062,  37083,  37084,  37085,  37086,  37155,  37156,  37157
  37158,  37179,  37180,  37181,  37182,  37251,  37252,  37253,  37254,  37275,  37276,  37277,  37278,  37300,  37302,  37324
  37326,  37347,  37348,  37349,  37350,  37371,  37372,  37373,  37374,  37443,  37444,  37445,  37446,  37467,  37468,  37469
  37470,  37539,  37540,  37541,  37542,  37563,  37564,  37565,  37566,  37635,  37636,  37637,  37638,  37659,  37660,  37661
  37662,  37684,  37686,  37708,  37710,  37731,  37732,  37733,  37734,  37755,  37756,  37757,  37758,  37827,  37828,  37829
** ... 110 like lines cut
*Nset, nset=ND-CEP
     74,     76,     78,     80,     82,     84,     92,     94,     96,    104,    106,    108,    112,    114,    118,    120
    130,    132,    142,    144,    433,    435,    437,    439,    441,    443,    451,    453,    455,    463,    465,    467
    471,    473,    477,    479,    489,    491,    501,    503,    650,    652,    654,    656,    658,    660,    668,    670
    672,    680,    682,    684,    688,    694,    706,    718,   1009,   1011,   1013,   1015,   1017,   1019,   1027,   1029
   1031,   1039,   1041,   1043,   1047,   1053,   1065,   1077,   1226,   1228,   1230,   1232,   1234,   1236,   1244,   1246
   1248,   1256,   1258,   1260,   1264,   1270,   1282,   1294,   1585,   1587,   1589,   1591,   1593,   1595,   1603,   1605
   1607,   1615,   1617,   1619,   1623,   1629,   1641,   1653,   1802,   1804,   1806,   1808,   1810,   1812,   1820,   1822
   1824,   1832,   1834,   1836,   1840,   1846,   1858,   1870,   2161,   2163,   2165,   2167,   2169,   2171,   2179,   2181
   2183,   2191,   2193,   2195,   2199,   2205,   2217,   2229,   2378,   2380,   2382,   2384,   2386,   2388,   2396,   2398
   2400,   2408,   2410,   2412,   2416,   2422,   2434,   2446,   2737,   2739,   2741,   2743,   2745,   2747,   2755,   2757
   2759,   2767,   2769,   2771,   2775,   2781,   2793,   2805,   2954,   2956,   2958,   2960,   2962,   2964,   2972,   2974
   2976,   2984,   2986,   2988,   2992,   2998,   3010,   3022,   3313,   3315,   3317,   3319,   3321,   3323,   3331,   3333
   3335,   3343,   3345,   3347,   3351,   3357,   3369,   3381,   3459,   3461,   3465,   3467,   3477,   3479,   3489,   3491
   3495,   3497,   3501,   3503,   3513,   3515,   3525,   3527,   3964,   3966,   3970,   3972,   3982,   3984,   3994,   3996
   4000,   4002,   4006,   4008,   4018,   4020,   4030,   4032,   4035,   4037,   4041,   4043,   4053,   4055,   4065,   4067
   4071,   4073,   4077,   4079,   4089,   4091,   4101,   4103,   4540,   4542,   4546,   4548,   4558,   4560,   4570,   4572
   4576,   4578,   4582,   4584,   4594,   4596,   4606,   4608,   4611,   4613,   4617,   4619,   4629,   4631,   4641,   4643
   4647,   4649,   4653,   4655,   4665,   4667,   4677,   4679,   5116,   5118,   5122,   5124,   5134,   5136,   5146,   5148
   5152,   5154,   5158,   5160,   5170,   5172,   5182,   5184,   5187,   5189,   5193,   5195,   5205,   5207,   5217,   5219
   5223,   5225,   5229,   5231,   5241,   5243,   5253,   5255,   5692,   5694,   5698,   5700,   5710,   5712,   5722,   5724
** ... 150 like lines cut
*Nset, nset=ND-SURF
  23071,  23072,  23073,  23074,  23075,  23076,  23109,  23110,  23111,  23112,  23145,  23146,  23147,  23148,  23181,  23182
  23183,  23184,  23217,  23218,  23219,  23220,  23253,  23254,  23255,  23256,  23287,  23288,  23289,  23290,  23291,  23292
  23325,  23326,  23359,  23360,  23361,  23362,  23363,  23364,  23397,  23398,  23431,  23432,  23433,  23434,  23435,  23436
  23469,  23470,  23471,  23504,  23506,  23508,  23542,  23545,  23546,  23547,  23548,  23549,  23550,  23583,  23584,  23585
  23721,  23723,  23757,  23759,  23762,  23763,  23764,  23765,  23766,  23799,  23800,  23801,  23802,  23936,  23938,  23940
  23974,  24007,  24009,  24010,  24011,  24012,  24045,  24046,  24047,  24048,  24124,  24126,  24160,  24195,  24197,  24231
  24298,  24300,  24334,  24336,  24368,  24370,  24372,  24406,  24408,  24409,  24411,  24413,  24447,  24481,  24483,  24485
  24519,  24556,  24558,  24592,  24594,  24628,  24630,  24664,  24666,  24729,  24731,  24765,  24767,  24799,  24801,  24803
  24837,  24839,  24842,  24844,  24846,  24880,  24914,  24916,  24918,  24952,  24987,  24989,  25023,  25025,  25059,  25061
  25095,  25097,  25162,  25164,  25198,  25200,  25232,  25234,  25236,  25270,  25272,  25273,  25275,  25277,  25311,  25345
  25347,  25349,  25383,  25420,  25422,  25456,  25458,  25492,  25494,  25528,  25530,  25593,  25595,  25629,  25631,  25663
  25665,  25667,  25701,  25703,  25735,  25737,  25739,  25773,  25775,  25807,  25809,  25811,  25845,  25879,  25881,  25883
  25917,  25954,  25956,  25990,  25992,  26026,  26028,  26062,  26064,  26098,  26100,  26134,  26136,  26168,  26170,  26172
  26206,  26208,  26240,  26242,  26244,  26278,  26312,  26314,  26316,  26350,  26385,  26387,  26421,  26423,  26457,  26459
  26493,  26529,  26530,  26531,  26532,  26565,  26566,  26567,  26568,  26602,  26604,  26638,  26640,  26673,  26674,  26675
  26676,  26709,  26710,  26711,  26712,  26746,  26748,  26782,  26784,  26818,  26820,  26854,  26856,  26960,  26962,  26964
  26998,  27032,  27034,  27036,  27070,  27105,  27106,  27107,  27108,  27141,  27142,  27143,  27144,  27178,  27180,  27214
  27216,  27250,  27252,  27286,  27288,  27322,  27324,  27358,  27360,  27394,  27396,  27430,  27432,  27466,  27468,  27502
  27504,  27536,  27538,  27540,  27574,  27608,  27610,  27612,  27646,  27681,  27682,  27683,  27684,  27717,  27718,  27719
  27720,  27754,  27756,  27790,  27792,  27826,  27828,  27862,  27864,  27898,  27900,  27934,  27936,  27970,  27972,  28006
** ... 110 like lines cut
*Elset, elset=_REBARS_S4, internal
    1,    2,    3,    4,    5,    6,    7,    8,    9,   10,   11,   12,   13,   14,   15,   16
   17,   18,   19,   20,   21,   22,   23,   24,   25,   26,   27,   28,   29,   30,   31,   32
   33,   34,   35,   36,   37,   38,   39,   40,   41,   42,   43,   44,   45,   46,   47,   48
   49,   50,   51,   52,   53,   54,   55,   56,   57,   58,   59,   60,   61,   62,   63,   64
   65,   66,   67,   68,   69,   70,   71,   72,   73,   74,   75,   76,   77,   78,   79,   80
   81,   82,   83,   84,   85,   86,   87,   88,   89,   90,   91,   92,   93,   94,   95,   96
   97,   98,   99,  100,  101,  102,  103,  104,  105,  106,  107,  108,  109,  110,  111,  112
  113,  114,  115,  116,  117,  118,  119,  120,  121,  122,  123,  124,  125,  126,  127,  128
  129,  130,  131,  132,  133,  134,  135,  136,  137,  138,  139,  140,  141,  142,  143,  144
  145,  146,  147,  148,  149,  150,  151,  152,  153,  154,  155,  156,  157,  158,  159,  160
  161,  162,  163,  164,  165,  166,  167,  168,  169,  170,  171,  172,  173,  174,  175,  176
  177,  178,  179,  180,  181,  182,  183,  184,  185,  186,  187,  188,  189,  190,  191,  192
  193,  194,  195,  196,  197,  198,  199,  200,  201,  202,  203,  204,  205,  206,  207,  208
  209,  210,  211,  212,  213,  214,  215,  216,  217,  218,  219,  220,  221,  222,  223,  224
  225,  226,  227,  228,  229,  230,  231,  232,  233,  234,  235,  236,  237,  238,  239,  240
  241,  242,  243,  244,  245,  246,  247,  248,  249,  250,  251,  252,  253,  254,  255,  256
  257,  258,  259,  260,  261,  262,  263,  264,  265,  266,  267,  268,  269,  270,  271,  272
  273,  274,  275,  276,  277,  278,  279,  280,  281,  282,  283,  284,  285,  286,  287,  288
  289,  290,  291,  292,  293,  294,  295,  296,  297,  298,  299,  300,  301,  302,  303,  304
  305,  306,  307,  308,  309,  310,  311,  312,  313,  314,  315,  316,  317,  318,  319,  320
** ... 408 like lines cut
*Elset, elset=_REBARS_S6, internal
 3925, 3926, 3927, 3928, 3929, 3930, 3931, 3932, 3933, 3934, 3935, 3936, 3961, 3962, 3963, 3964
 3965, 3966, 3967, 3968, 3969, 3970, 3971, 3972, 4021, 4022, 4023, 4024, 4025, 4026, 4027, 4028
 4029, 4030, 4031, 4032, 4033, 4034, 4035, 4036, 4037, 4038, 4039, 4040, 4041, 4042, 4043, 4044
 4069, 4070, 4071, 4072, 4073, 4074, 4075, 4076, 4077, 4078, 4079, 4080, 4081, 4082, 4083, 4084
 4085, 4086, 4087, 4088, 4089, 4090, 4091, 4092, 4093, 4094, 4095, 4096, 4097, 4098, 4099, 4100
 4101, 4102, 4103, 4104, 4105, 4106, 4107, 4108, 4109, 4110, 4111, 4112, 4113, 4114, 4115, 4116
 4141, 4142, 4143, 4144, 4145, 4146, 4147, 4148, 4149, 4150, 4151, 4152, 4153, 4154, 4155, 4156
 4157, 4158, 4159, 4160, 4161, 4162, 4163, 4164, 4165, 4166, 4167, 4168, 4169, 4170, 4171, 4172
 4173, 4174, 4175, 4176, 4177, 4178, 4179, 4180, 4181, 4182, 4183, 4184, 4185, 4186, 4187, 4188
 4213, 4214, 4215, 4216, 4217, 4218, 4219, 4220, 4221, 4222, 4223, 4224, 4225, 4226, 4227, 4228
 4229, 4230, 4231, 4232, 4233, 4234, 4235, 4236, 4237, 4238, 4239, 4240, 4241, 4242, 4243, 4244
 4245, 4246, 4247, 4248, 4249, 4250, 4251, 4252, 4253, 4254, 4255, 4256, 4257, 4258, 4259, 4260
*Elset, elset=_REBARS_S4_1, internal
    1,    2,    3,    4,    5,    6,    7,    8,    9,   10,   11,   12,   13,   14,   15,   16
   17,   18,   19,   20,   21,   22,   23,   24,   25,   26,   27,   28,   29,   30,   31,   32
   33,   34,   35,   36,   37,   38,   39,   40,   41,   42,   43,   44,   45,   46,   47,   48
   49,   50,   51,   52,   53,   54,   55,   56,   57,   58,   59,   60,   61,   62,   63,   64
   65,   66,   67,   68,   69,   70,   71,   72,   73,   74,   75,   76,   77,   78,   79,   80
   81,   82,   83,   84,   85,   86,   87,   88,   89,   90,   91,   92,   93,   94,   95,   96
   97,   98,   99,  100,  101,  102,  103,  104,  105,  106,  107,  108,  109,  110,  111,  112
  113,  114,  115,  116,  117,  118,  119,  120,  121,  122,  123,  124,  125,  126,  127,  128
  129,  130,  131,  132,  133,  134,  135,  136,  137,  138,  139,  140,  141,  142,  143,  144
  145,  146,  147,  148,  149,  150,  151,  152,  153,  154,  155,  156,  157,  158,  159,  160
  161,  162,  163,  164,  165,  166,  167,  168,  169,  170,  171,  172,  173,  174,  175,  176
  177,  178,  179,  180,  181,  182,  183,  184,  185,  186,  187,  188,  189,  190,  191,  192
  193,  194,  195,  196,  197,  198,  199,  200,  201,  202,  203,  204,  205,  206,  207,  208
  209,  210,  211,  212,  213,  214,  215,  216,  217,  218,  219,  220,  221,  222,  223,  224
  225,  226,  227,  228,  229,  230,  231,  232,  233,  234,  235,  236,  237,  238,  239,  240
  241,  242,  243,  244,  245,  246,  247,  248,  249,  250,  251,  252,  253,  254,  255,  256
  257,  258,  259,  260,  261,  262,  263,  264,  265,  266,  267,  268,  269,  270,  271,  272
  273,  274,  275,  276,  277,  278,  279,  280,  281,  282,  283,  284,  285,  286,  287,  288
  289,  290,  291,  292,  293,  294,  295,  296,  297,  298,  299,  300,  301,  302,  303,  304
  305,  306,  307,  308,  309,  310,  311,  312,  313,  314,  315,  316,  317,  318,  319,  320
** ... 408 like lines cut
*Elset, elset=_REBARS_S6_1, internal
 3925, 3926, 3927, 3928, 3929, 3930, 3931, 3932, 3933, 3934, 3935, 3936, 3961, 3962, 3963, 3964
 3965, 3966, 3967, 3968, 3969, 3970, 3971, 3972, 4021, 4022, 4023, 4024, 4025, 4026, 4027, 4028
 4029, 4030, 4031, 4032, 4033, 4034, 4035, 4036, 4037, 4038, 4039, 4040, 4041, 4042, 4043, 4044
 4069, 4070, 4071, 4072, 4073, 4074, 4075, 4076, 4077, 4078, 4079, 4080, 4081, 4082, 4083, 4084
 4085, 4086, 4087, 4088, 4089, 4090, 4091, 4092, 4093, 4094, 4095, 4096, 4097, 4098, 4099, 4100
 4101, 4102, 4103, 4104, 4105, 4106, 4107, 4108, 4109, 4110, 4111, 4112, 4113, 4114, 4115, 4116
 4141, 4142, 4143, 4144, 4145, 4146, 4147, 4148, 4149, 4150, 4151, 4152, 4153, 4154, 4155, 4156
 4157, 4158, 4159, 4160, 4161, 4162, 4163, 4164, 4165, 4166, 4167, 4168, 4169, 4170, 4171, 4172
 4173, 4174, 4175, 4176, 4177, 4178, 4179, 4180, 4181, 4182, 4183, 4184, 4185, 4186, 4187, 4188
 4213, 4214, 4215, 4216, 4217, 4218, 4219, 4220, 4221, 4222, 4223, 4224, 4225, 4226, 4227, 4228
 4229, 4230, 4231, 4232, 4233, 4234, 4235, 4236, 4237, 4238, 4239, 4240, 4241, 4242, 4243, 4244
 4245, 4246, 4247, 4248, 4249, 4250, 4251, 4252, 4253, 4254, 4255, 4256, 4257, 4258, 4259, 4260
*Nset, nset=ND-SURF_PP_, internal
  23071,  23072,  23073,  23074,  23075,  23076,  23109,  23110,  23111,  23112,  23145,  23146,  23147,  23148,  23181,  23182
  23183,  23184,  23217,  23218,  23219,  23220,  23253,  23254,  23255,  23256,  23287,  23288,  23289,  23290,  23291,  23292
  23325,  23326,  23359,  23360,  23361,  23362,  23363,  23364,  23397,  23398,  23431,  23432,  23433,  23434,  23435,  23436
  23469,  23470,  23471,  23504,  23506,  23508,  23542,  23545,  23546,  23547,  23548,  23549,  23550,  23583,  23584,  23585
  23721,  23723,  23757,  23759,  23762,  23763,  23764,  23765,  23766,  23799,  23800,  23801,  23802,  23936,  23938,  23940
  23974,  24007,  24009,  24010,  24011,  24012,  24045,  24046,  24047,  24048,  24124,  24126,  24160,  24195,  24197,  24231
  24298,  24300,  24334,  24336,  24368,  24370,  24372,  24406,  24408,  24409,  24411,  24413,  24447,  24481,  24483,  24485
  24519,  24556,  24558,  24592,  24594,  24628,  24630,  24664,  24666,  24729,  24731,  24765,  24767,  24799,  24801,  24803
  24837,  24839,  24842,  24844,  24846,  24880,  24914,  24916,  24918,  24952,  24987,  24989,  25023,  25025,  25059,  25061
  25095,  25097,  25162,  25164,  25198,  25200,  25232,  25234,  25236,  25270,  25272,  25273,  25275,  25277,  25311,  25345
  25347,  25349,  25383,  25420,  25422,  25456,  25458,  25492,  25494,  25528,  25530,  25593,  25595,  25629,  25631,  25663
  25665,  25667,  25701,  25703,  25735,  25737,  25739,  25773,  25775,  25807,  25809,  25811,  25845,  25879,  25881,  25883
  25917,  25954,  25956,  25990,  25992,  26026,  26028,  26062,  26064,  26098,  26100,  26134,  26136,  26168,  26170,  26172
  26206,  26208,  26240,  26242,  26244,  26278,  26312,  26314,  26316,  26350,  26385,  26387,  26421,  26423,  26457,  26459
  26493,  26529,  26530,  26531,  26532,  26565,  26566,  26567,  26568,  26602,  26604,  26638,  26640,  26673,  26674,  26675
  26676,  26709,  26710,  26711,  26712,  26746,  26748,  26782,  26784,  26818,  26820,  26854,  26856,  26960,  26962,  26964
  26998,  27032,  27034,  27036,  27070,  27105,  27106,  27107,  27108,  27141,  27142,  27143,  27144,  27178,  27180,  27214
  27216,  27250,  27252,  27286,  27288,  27322,  27324,  27358,  27360,  27394,  27396,  27430,  27432,  27466,  27468,  27502
  27504,  27536,  27538,  27540,  27574,  27608,  27610,  27612,  27646,  27681,  27682,  27683,  27684,  27717,  27718,  27719
  27720,  27754,  27756,  27790,  27792,  27826,  27828,  27862,  27864,  27898,  27900,  27934,  27936,  27970,  27972,  28006
** ... 110 like lines cut
*Elset, elset=_REBARS_S4_2, internal
    1,    2,    3,    4,    5,    6,    7,    8,    9,   10,   11,   12,   13,   14,   15,   16
   17,   18,   19,   20,   21,   22,   23,   24,   25,   26,   27,   28,   29,   30,   31,   32
   33,   34,   35,   36,   37,   38,   39,   40,   41,   42,   43,   44,   45,   46,   47,   48
   49,   50,   51,   52,   53,   54,   55,   56,   57,   58,   59,   60,   61,   62,   63,   64
   65,   66,   67,   68,   69,   70,   71,   72,   73,   74,   75,   76,   77,   78,   79,   80
   81,   82,   83,   84,   85,   86,   87,   88,   89,   90,   91,   92,   93,   94,   95,   96
   97,   98,   99,  100,  101,  102,  103,  104,  105,  106,  107,  108,  109,  110,  111,  112
  113,  114,  115,  116,  117,  118,  119,  120,  121,  122,  123,  124,  125,  126,  127,  128
  129,  130,  131,  132,  133,  134,  135,  136,  137,  138,  139,  140,  141,  142,  143,  144
  145,  146,  147,  148,  149,  150,  151,  152,  153,  154,  155,  156,  157,  158,  159,  160
  161,  162,  163,  164,  165,  166,  167,  168,  169,  170,  171,  172,  173,  174,  175,  176
  177,  178,  179,  180,  181,  182,  183,  184,  185,  186,  187,  188,  189,  190,  191,  192
  193,  194,  195,  196,  197,  198,  199,  200,  201,  202,  203,  204,  205,  206,  207,  208
  209,  210,  211,  212,  213,  214,  215,  216,  217,  218,  219,  220,  221,  222,  223,  224
  225,  226,  227,  228,  229,  230,  231,  232,  233,  234,  235,  236,  237,  238,  239,  240
  241,  242,  243,  244,  245,  246,  247,  248,  249,  250,  251,  252,  253,  254,  255,  256
  257,  258,  259,  260,  261,  262,  263,  264,  265,  266,  267,  268,  269,  270,  271,  272
  273,  274,  275,  276,  277,  278,  279,  280,  281,  282,  283,  284,  285,  286,  287,  288
  289,  290,  291,  292,  293,  294,  295,  296,  297,  298,  299,  300,  301,  302,  303,  304
  305,  306,  307,  308,  309,  310,  311,  312,  313,  314,  315,  316,  317,  318,  319,  320
** ... 408 like lines cut
*Elset, elset=_REBARS_S6_2, internal
 3925, 3926, 3927, 3928, 3929, 3930, 3931, 3932, 3933, 3934, 3935, 3936, 3961, 3962, 3963, 3964
 3965, 3966, 3967, 3968, 3969, 3970, 3971, 3972, 4021, 4022, 4023, 4024, 4025, 4026, 4027, 4028
 4029, 4030, 4031, 4032, 4033, 4034, 4035, 4036, 4037, 4038, 4039, 4040, 4041, 4042, 4043, 4044
 4069, 4070, 4071, 4072, 4073, 4074, 4075, 4076, 4077, 4078, 4079, 4080, 4081, 4082, 4083, 4084
 4085, 4086, 4087, 4088, 4089, 4090, 4091, 4092, 4093, 4094, 4095, 4096, 4097, 4098, 4099, 4100
 4101, 4102, 4103, 4104, 4105, 4106, 4107, 4108, 4109, 4110, 4111, 4112, 4113, 4114, 4115, 4116
 4141, 4142, 4143, 4144, 4145, 4146, 4147, 4148, 4149, 4150, 4151, 4152, 4153, 4154, 4155, 4156
 4157, 4158, 4159, 4160, 4161, 4162, 4163, 4164, 4165, 4166, 4167, 4168, 4169, 4170, 4171, 4172
 4173, 4174, 4175, 4176, 4177, 4178, 4179, 4180, 4181, 4182, 4183, 4184, 4185, 4186, 4187, 4188
 4213, 4214, 4215, 4216, 4217, 4218, 4219, 4220, 4221, 4222, 4223, 4224, 4225, 4226, 4227, 4228
 4229, 4230, 4231, 4232, 4233, 4234, 4235, 4236, 4237, 4238, 4239, 4240, 4241, 4242, 4243, 4244
 4245, 4246, 4247, 4248, 4249, 4250, 4251, 4252, 4253, 4254, 4255, 4256, 4257, 4258, 4259, 4260
*Nset, nset=ND-SURF_PP__PP_, internal
  23071,  23072,  23073,  23074,  23075,  23076,  23109,  23110,  23111,  23112,  23145,  23146,  23147,  23148,  23181,  23182
  23183,  23184,  23217,  23218,  23219,  23220,  23253,  23254,  23255,  23256,  23287,  23288,  23289,  23290,  23291,  23292
  23325,  23326,  23359,  23360,  23361,  23362,  23363,  23364,  23397,  23398,  23431,  23432,  23433,  23434,  23435,  23436
  23469,  23470,  23471,  23504,  23506,  23508,  23542,  23545,  23546,  23547,  23548,  23549,  23550,  23583,  23584,  23585
  23721,  23723,  23757,  23759,  23762,  23763,  23764,  23765,  23766,  23799,  23800,  23801,  23802,  23936,  23938,  23940
  23974,  24007,  24009,  24010,  24011,  24012,  24045,  24046,  24047,  24048,  24124,  24126,  24160,  24195,  24197,  24231
  24298,  24300,  24334,  24336,  24368,  24370,  24372,  24406,  24408,  24409,  24411,  24413,  24447,  24481,  24483,  24485
  24519,  24556,  24558,  24592,  24594,  24628,  24630,  24664,  24666,  24729,  24731,  24765,  24767,  24799,  24801,  24803
  24837,  24839,  24842,  24844,  24846,  24880,  24914,  24916,  24918,  24952,  24987,  24989,  25023,  25025,  25059,  25061
  25095,  25097,  25162,  25164,  25198,  25200,  25232,  25234,  25236,  25270,  25272,  25273,  25275,  25277,  25311,  25345
  25347,  25349,  25383,  25420,  25422,  25456,  25458,  25492,  25494,  25528,  25530,  25593,  25595,  25629,  25631,  25663
  25665,  25667,  25701,  25703,  25735,  25737,  25739,  25773,  25775,  25807,  25809,  25811,  25845,  25879,  25881,  25883
  25917,  25954,  25956,  25990,  25992,  26026,  26028,  26062,  26064,  26098,  26100,  26134,  26136,  26168,  26170,  26172
  26206,  26208,  26240,  26242,  26244,  26278,  26312,  26314,  26316,  26350,  26385,  26387,  26421,  26423,  26457,  26459
  26493,  26529,  26530,  26531,  26532,  26565,  26566,  26567,  26568,  26602,  26604,  26638,  26640,  26673,  26674,  26675
  26676,  26709,  26710,  26711,  26712,  26746,  26748,  26782,  26784,  26818,  26820,  26854,  26856,  26960,  26962,  26964
  26998,  27032,  27034,  27036,  27070,  27105,  27106,  27107,  27108,  27141,  27142,  27143,  27144,  27178,  27180,  27214
  27216,  27250,  27252,  27286,  27288,  27322,  27324,  27358,  27360,  27394,  27396,  27430,  27432,  27466,  27468,  27502
  27504,  27536,  27538,  27540,  27574,  27608,  27610,  27612,  27646,  27681,  27682,  27683,  27684,  27717,  27718,  27719
  27720,  27754,  27756,  27790,  27792,  27826,  27828,  27862,  27864,  27898,  27900,  27934,  27936,  27970,  27972,  28006
** ... 110 like lines cut
*Elset, elset=_REBARS_S4_3, internal
    1,    2,    3,    4,    5,    6,    7,    8,    9,   10,   11,   12,   13,   14,   15,   16
   17,   18,   19,   20,   21,   22,   23,   24,   25,   26,   27,   28,   29,   30,   31,   32
   33,   34,   35,   36,   37,   38,   39,   40,   41,   42,   43,   44,   45,   46,   47,   48
   49,   50,   51,   52,   53,   54,   55,   56,   57,   58,   59,   60,   61,   62,   63,   64
   65,   66,   67,   68,   69,   70,   71,   72,   73,   74,   75,   76,   77,   78,   79,   80
   81,   82,   83,   84,   85,   86,   87,   88,   89,   90,   91,   92,   93,   94,   95,   96
   97,   98,   99,  100,  101,  102,  103,  104,  105,  106,  107,  108,  109,  110,  111,  112
  113,  114,  115,  116,  117,  118,  119,  120,  121,  122,  123,  124,  125,  126,  127,  128
  129,  130,  131,  132,  133,  134,  135,  136,  137,  138,  139,  140,  141,  142,  143,  144
  145,  146,  147,  148,  149,  150,  151,  152,  153,  154,  155,  156,  157,  158,  159,  160
  161,  162,  163,  164,  165,  166,  167,  168,  169,  170,  171,  172,  173,  174,  175,  176
  177,  178,  179,  180,  181,  182,  183,  184,  185,  186,  187,  188,  189,  190,  191,  192
  193,  194,  195,  196,  197,  198,  199,  200,  201,  202,  203,  204,  205,  206,  207,  208
  209,  210,  211,  212,  213,  214,  215,  216,  217,  218,  219,  220,  221,  222,  223,  224
  225,  226,  227,  228,  229,  230,  231,  232,  233,  234,  235,  236,  237,  238,  239,  240
  241,  242,  243,  244,  245,  246,  247,  248,  249,  250,  251,  252,  253,  254,  255,  256
  257,  258,  259,  260,  261,  262,  263,  264,  265,  266,  267,  268,  269,  270,  271,  272
  273,  274,  275,  276,  277,  278,  279,  280,  281,  282,  283,  284,  285,  286,  287,  288
  289,  290,  291,  292,  293,  294,  295,  296,  297,  298,  299,  300,  301,  302,  303,  304
  305,  306,  307,  308,  309,  310,  311,  312,  313,  314,  315,  316,  317,  318,  319,  320
** ... 408 like lines cut
*Elset, elset=_REBARS_S6_3, internal
 3925, 3926, 3927, 3928, 3929, 3930, 3931, 3932, 3933, 3934, 3935, 3936, 3961, 3962, 3963, 3964
 3965, 3966, 3967, 3968, 3969, 3970, 3971, 3972, 4021, 4022, 4023, 4024, 4025, 4026, 4027, 4028
 4029, 4030, 4031, 4032, 4033, 4034, 4035, 4036, 4037, 4038, 4039, 4040, 4041, 4042, 4043, 4044
 4069, 4070, 4071, 4072, 4073, 4074, 4075, 4076, 4077, 4078, 4079, 4080, 4081, 4082, 4083, 4084
 4085, 4086, 4087, 4088, 4089, 4090, 4091, 4092, 4093, 4094, 4095, 4096, 4097, 4098, 4099, 4100
 4101, 4102, 4103, 4104, 4105, 4106, 4107, 4108, 4109, 4110, 4111, 4112, 4113, 4114, 4115, 4116
 4141, 4142, 4143, 4144, 4145, 4146, 4147, 4148, 4149, 4150, 4151, 4152, 4153, 4154, 4155, 4156
 4157, 4158, 4159, 4160, 4161, 4162, 4163, 4164, 4165, 4166, 4167, 4168, 4169, 4170, 4171, 4172
 4173, 4174, 4175, 4176, 4177, 4178, 4179, 4180, 4181, 4182, 4183, 4184, 4185, 4186, 4187, 4188
 4213, 4214, 4215, 4216, 4217, 4218, 4219, 4220, 4221, 4222, 4223, 4224, 4225, 4226, 4227, 4228
 4229, 4230, 4231, 4232, 4233, 4234, 4235, 4236, 4237, 4238, 4239, 4240, 4241, 4242, 4243, 4244
 4245, 4246, 4247, 4248, 4249, 4250, 4251, 4252, 4253, 4254, 4255, 4256, 4257, 4258, 4259, 4260
*Nset, nset=ND-SURF_PP__PP__PP_, internal
  23071,  23072,  23073,  23074,  23075,  23076,  23109,  23110,  23111,  23112,  23145,  23146,  23147,  23148,  23181,  23182
  23183,  23184,  23217,  23218,  23219,  23220,  23253,  23254,  23255,  23256,  23287,  23288,  23289,  23290,  23291,  23292
  23325,  23326,  23359,  23360,  23361,  23362,  23363,  23364,  23397,  23398,  23431,  23432,  23433,  23434,  23435,  23436
  23469,  23470,  23471,  23504,  23506,  23508,  23542,  23545,  23546,  23547,  23548,  23549,  23550,  23583,  23584,  23585
  23721,  23723,  23757,  23759,  23762,  23763,  23764,  23765,  23766,  23799,  23800,  23801,  23802,  23936,  23938,  23940
  23974,  24007,  24009,  24010,  24011,  24012,  24045,  24046,  24047,  24048,  24124,  24126,  24160,  24195,  24197,  24231
  24298,  24300,  24334,  24336,  24368,  24370,  24372,  24406,  24408,  24409,  24411,  24413,  24447,  24481,  24483,  24485
  24519,  24556,  24558,  24592,  24594,  24628,  24630,  24664,  24666,  24729,  24731,  24765,  24767,  24799,  24801,  24803
  24837,  24839,  24842,  24844,  24846,  24880,  24914,  24916,  24918,  24952,  24987,  24989,  25023,  25025,  25059,  25061
  25095,  25097,  25162,  25164,  25198,  25200,  25232,  25234,  25236,  25270,  25272,  25273,  25275,  25277,  25311,  25345
  25347,  25349,  25383,  25420,  25422,  25456,  25458,  25492,  25494,  25528,  25530,  25593,  25595,  25629,  25631,  25663
  25665,  25667,  25701,  25703,  25735,  25737,  25739,  25773,  25775,  25807,  25809,  25811,  25845,  25879,  25881,  25883
  25917,  25954,  25956,  25990,  25992,  26026,  26028,  26062,  26064,  26098,  26100,  26134,  26136,  26168,  26170,  26172
  26206,  26208,  26240,  26242,  26244,  26278,  26312,  26314,  26316,  26350,  26385,  26387,  26421,  26423,  26457,  26459
  26493,  26529,  26530,  26531,  26532,  26565,  26566,  26567,  26568,  26602,  26604,  26638,  26640,  26673,  26674,  26675
  26676,  26709,  26710,  26711,  26712,  26746,  26748,  26782,  26784,  26818,  26820,  26854,  26856,  26960,  26962,  26964
  26998,  27032,  27034,  27036,  27070,  27105,  27106,  27107,  27108,  27141,  27142,  27143,  27144,  27178,  27180,  27214
  27216,  27250,  27252,  27286,  27288,  27322,  27324,  27358,  27360,  27394,  27396,  27430,  27432,  27466,  27468,  27502
  27504,  27536,  27538,  27540,  27574,  27608,  27610,  27612,  27646,  27681,  27682,  27683,  27684,  27717,  27718,  27719
  27720,  27754,  27756,  27790,  27792,  27826,  27828,  27862,  27864,  27898,  27900,  27934,  27936,  27970,  27972,  28006
** ... 110 like lines cut
*Elset, elset=_REBARS_S4_4, internal
    1,    2,    3,    4,    5,    6,    7,    8,    9,   10,   11,   12,   13,   14,   15,   16
   17,   18,   19,   20,   21,   22,   23,   24,   25,   26,   27,   28,   29,   30,   31,   32
   33,   34,   35,   36,   37,   38,   39,   40,   41,   42,   43,   44,   45,   46,   47,   48
   49,   50,   51,   52,   53,   54,   55,   56,   57,   58,   59,   60,   61,   62,   63,   64
   65,   66,   67,   68,   69,   70,   71,   72,   73,   74,   75,   76,   77,   78,   79,   80
   81,   82,   83,   84,   85,   86,   87,   88,   89,   90,   91,   92,   93,   94,   95,   96
   97,   98,   99,  100,  101,  102,  103,  104,  105,  106,  107,  108,  109,  110,  111,  112
  113,  114,  115,  116,  117,  118,  119,  120,  121,  122,  123,  124,  125,  126,  127,  128
  129,  130,  131,  132,  133,  134,  135,  136,  137,  138,  139,  140,  141,  142,  143,  144
  145,  146,  147,  148,  149,  150,  151,  152,  153,  154,  155,  156,  157,  158,  159,  160
  161,  162,  163,  164,  165,  166,  167,  168,  169,  170,  171,  172,  173,  174,  175,  176
  177,  178,  179,  180,  181,  182,  183,  184,  185,  186,  187,  188,  189,  190,  191,  192
  193,  194,  195,  196,  197,  198,  199,  200,  201,  202,  203,  204,  205,  206,  207,  208
  209,  210,  211,  212,  213,  214,  215,  216,  217,  218,  219,  220,  221,  222,  223,  224
  225,  226,  227,  228,  229,  230,  231,  232,  233,  234,  235,  236,  237,  238,  239,  240
  241,  242,  243,  244,  245,  246,  247,  248,  249,  250,  251,  252,  253,  254,  255,  256
  257,  258,  259,  260,  261,  262,  263,  264,  265,  266,  267,  268,  269,  270,  271,  272
  273,  274,  275,  276,  277,  278,  279,  280,  281,  282,  283,  284,  285,  286,  287,  288
  289,  290,  291,  292,  293,  294,  295,  296,  297,  298,  299,  300,  301,  302,  303,  304
  305,  306,  307,  308,  309,  310,  311,  312,  313,  314,  315,  316,  317,  318,  319,  320
** ... 408 like lines cut
*Elset, elset=_REBARS_S6_4, internal
 3925, 3926, 3927, 3928, 3929, 3930, 3931, 3932, 3933, 3934, 3935, 3936, 3961, 3962, 3963, 3964
 3965, 3966, 3967, 3968, 3969, 3970, 3971, 3972, 4021, 4022, 4023, 4024, 4025, 4026, 4027, 4028
 4029, 4030, 4031, 4032, 4033, 4034, 4035, 4036, 4037, 4038, 4039, 4040, 4041, 4042, 4043, 4044
 4069, 4070, 4071, 4072, 4073, 4074, 4075, 4076, 4077, 4078, 4079, 4080, 4081, 4082, 4083, 4084
 4085, 4086, 4087, 4088, 4089, 4090, 4091, 4092, 4093, 4094, 4095, 4096, 4097, 4098, 4099, 4100
 4101, 4102, 4103, 4104, 4105, 4106, 4107, 4108, 4109, 4110, 4111, 4112, 4113, 4114, 4115, 4116
 4141, 4142, 4143, 4144, 4145, 4146, 4147, 4148, 4149, 4150, 4151, 4152, 4153, 4154, 4155, 4156
 4157, 4158, 4159, 4160, 4161, 4162, 4163, 4164, 4165, 4166, 4167, 4168, 4169, 4170, 4171, 4172
 4173, 4174, 4175, 4176, 4177, 4178, 4179, 4180, 4181, 4182, 4183, 4184, 4185, 4186, 4187, 4188
 4213, 4214, 4215, 4216, 4217, 4218, 4219, 4220, 4221, 4222, 4223, 4224, 4225, 4226, 4227, 4228
 4229, 4230, 4231, 4232, 4233, 4234, 4235, 4236, 4237, 4238, 4239, 4240, 4241, 4242, 4243, 4244
 4245, 4246, 4247, 4248, 4249, 4250, 4251, 4252, 4253, 4254, 4255, 4256, 4257, 4258, 4259, 4260
*Surface, type=ELEMENT, name=REBARS
_REBARS_S4_4, S4
_REBARS_S6_4, S6
** Section: Section-1-AF
*Solid Section, elset=AF, material=AF
,
** Section: Section-2-AF-Z2
*Solid Section, elset=AF-Z2, material=AF
,
** Section: Section-3-AF-Z1
*Solid Section, elset=AF-Z1, material=AF
,
** Section: Section-12-REBARS_PI
*Surface Section, elset=REBARS_PI
*Rebar Layer
REBS_43, 0.1, 0.25, , COLLAGEN, 43., 1
REBS_M43, 0.1, 0.25, , COLLAGEN, -43., 1
** Section: Section-13-REBARS_AI
*Surface Section, elset=REBARS_AI
*Rebar Layer
REBS_31, 0.1, 0.25, , COLLAGEN, 31., 1
REBS_M31, 0.1, 0.25, , COLLAGEN, -31., 1
** Section: Section-14-REBARS_PO
*Surface Section, elset=REBARS_PO
*Rebar Layer
REBS_28, 0.1, 0.25, , COLLAGEN, 28., 1
REBS_M28, 0.1, 0.25, , COLLAGEN, -28., 1
** Section: Section-15-REBARS_AO
*Surface Section, elset=REBARS_AO
*Rebar Layer
REBS_23, 0.1, 0.25, , COLLAGEN, 23., 1
REBS_M23, 0.1, 0.25, , COLLAGEN, -23., 1
*End Part
**  
**
** ASSEMBLY
**
*Assembly, name=Assembly
**  
*Instance, name=PART-1-1, part=PART-1
*Nset, nset=ND-SURF_PP__PP__PP__PP_, internal
  23071,  23072,  23073,  23074,  23075,  23076,  23109,  23110,  23111,  23112,  23145,  23146,  23147,  23148,  23181,  23182
  23183,  23184,  23217,  23218,  23219,  23220,  23253,  23254,  23255,  23256,  23287,  23288,  23289,  23290,  23291,  23292
  23325,  23326,  23359,  23360,  23361,  23362,  23363,  23364,  23397,  23398,  23431,  23432,  23433,  23434,  23435,  23436
  23469,  23470,  23471,  23504,  23506,  23508,  23542,  23545,  23546,  23547,  23548,  23549,  23550,  23583,  23584,  23585
  23721,  23723,  23757,  23759,  23762,  23763,  23764,  23765,  23766,  23799,  23800,  23801,  23802,  23936,  23938,  23940
  23974,  24007,  24009,  24010,  24011,  24012,  24045,  24046,  24047,  24048,  24124,  24126,  24160,  24195,  24197,  24231
  24298,  24300,  24334,  24336,  24368,  24370,  24372,  24406,  24408,  24409,  24411,  24413,  24447,  24481,  24483,  24485
  24519,  24556,  24558,  24592,  24594,  24628,  24630,  24664,  24666,  24729,  24731,  24765,  24767,  24799,  24801,  24803
  24837,  24839,  24842,  24844,  24846,  24880,  24914,  24916,  24918,  24952,  24987,  24989,  25023,  25025,  25059,  25061
  25095,  25097,  25162,  25164,  25198,  25200,  25232,  25234,  25236,  25270,  25272,  25273,  25275,  25277,  25311,  25345
  25347,  25349,  25383,  25420,  25422,  25456,  25458,  25492,  25494,  25528,  25530,  25593,  25595,  25629,  25631,  25663
  25665,  25667,  25701,  25703,  25735,  25737,  25739,  25773,  25775,  25807,  25809,  25811,  25845,  25879,  25881,  25883
  25917,  25954,  25956,  25990,  25992,  26026,  26028,  26062,  26064,  26098,  26100,  26134,  26136,  26168,  26170,  26172
  26206,  26208,  26240,  26242,  26244,  26278,  26312,  26314,  26316,  26350,  26385,  26387,  26421,  26423,  26457,  26459
  26493,  26529,  26530,  26531,  26532,  26565,  26566,  26567,  26568,  26602,  26604,  26638,  26640,  26673,  26674,  26675
  26676,  26709,  26710,  26711,  26712,  26746,  26748,  26782,  26784,  26818,  26820,  26854,  26856,  26960,  26962,  26964
  26998,  27032,  27034,  27036,  27070,  27105,  27106,  27107,  27108,  27141,  27142,  27143,  27144,  27178,  27180,  27214
  27216,  27250,  27252,  27286,  27288,  27322,  27324,  27358,  27360,  27394,  27396,  27430,  27432,  27466,  27468,  27502
  27504,  27536,  27538,  27540,  27574,  27608,  27610,  27612,  27646,  27681,  27682,  27683,  27684,  27717,  27718,  27719
  27720,  27754,  27756,  27790,  27792,  27826,  27828,  27862,  27864,  27898,  27900,  27934,  27936,  27970,  27972,  28006
** ... 110 like lines cut
*End Instance
**  
*End Assembly
*Amplitude, name=AMP-1
             0.,              1.,          28790.,              1.
*Amplitude, name=AMP-2
             0.,              1.,          57590.,              1.
** 
** MATERIALS
** 
*Material, name=AF
*Depvar
      8,
*User Defined Field
*User Material, constants=6
 0.84, 0.704,  0.15,  0.18,  0.65,    0.
*Material, name=AF-Z1
*Depvar
      8,
*User Defined Field
*User Material, constants=6
 0.84, 0.704,  0.15,  0.18,  0.65,    0.
*Material, name=AF-Z2
*Depvar
      8,
*User Defined Field
*User Material, constants=6
 0.84, 0.704,  0.15,  0.18,  0.65,    0.
*Material, name=BEP
*Elastic
10000., 0.3
*Permeability, specific=1.
26800., 0.05
*Material, name=CEP
*Depvar
      2,
*Elastic
20., 0.17
*User Defined Field
*Material, name=COLLAGEN
*Depvar
      1,
*User Material, constants=5
4000., 2.8, 11., 6.1,  8.
*Material, name=NP
*Depvar
      8,
*User Defined Field
*User Material, constants=6
1., 0.745,  0.15,  0.29,  0.15,    0.
*Material, name=NP-Z1
*Depvar
      8,
*User Defined Field
*User Material, constants=6
1., 0.745,  0.15,  0.29,  0.15,    0.
*Material, name=NP-Z2
*Depvar
      8,
*User Defined Field
*User Material, constants=6
1., 0.745,  0.15,  0.29,  0.15,    0.
*Material, name=NP-Z3
*Depvar
      8,
*User Defined Field
*User Material, constants=6
1., 0.745,  0.15,  0.29,  0.15,    0.
*Material, name=NP-Z4
*Depvar
      8,
*User Defined Field
*User Material, constants=6
1., 0.745,  0.15,  0.29,  0.15,    0.
*Material, name=NP-Z5
*Depvar
      8,
*User Defined Field
*User Material, constants=6
1., 0.745,  0.15,  0.29,  0.15,    0.
** 
** BOUNDARY CONDITIONS
** 
** Name: Disp-BC-1 Type: Symmetry/Antisymmetry/Encastre
*Boundary
PART-1-1.ND-BEP-F, ENCASTRE
** Name: Por-BC-1 Type: Pore pressure
*Boundary
PART-1-1.ND-SURF_PP__PP__PP__PP_, 8, 8
** 
** PREDEFINED FIELDS
** 
** Name: Field-1   Type: Field
*Initial Conditions, type=FIELD, variable=1
PART-1-1.ND-CEP, 0.0025
** Name: Field-2   Type: Field
*Initial Conditions, type=FIELD, variable=1
PART-1-1.ND-AF, 0.00016
** Name: Field-3   Type: Field
*Initial Conditions, type=FIELD, variable=1
PART-1-1.ND-NP, 0.00016
** Name: Field-4   Type: Field
*Initial Conditions, type=FIELD, variable=2
PART-1-1.ND-CEP, 8.5
** Name: Field-5   Type: Field
*Initial Conditions, type=FIELD, variable=2
PART-1-1.ND-AF, 1.2
** Name: Field-6   Type: Field
*Initial Conditions, type=FIELD, variable=2
PART-1-1.ND-NP, 1.2
** Name: Field-7   Type: Field
*Initial Conditions, type=FIELD, variable=3
PART-1-1.ND-CEP, 4.
** Name: Field-8   Type: Field
*Initial Conditions, type=FIELD, variable=3
PART-1-1.ND-AF, 3.
** Name: Field-9   Type: Field
*Initial Conditions, type=FIELD, variable=3
PART-1-1.ND-NP, 4.
** Name: Field-10   Type: Field
*Initial Conditions, type=FIELD, variable=3
PART-1-1.ND-BEP, 0.05
** Name: Field-11   Type: Field
*Initial Conditions, type=FIELD, variable=4
PART-1-1.ND-CEP, 0.0025
** Name: Field-12   Type: Field
*Initial Conditions, type=FIELD, variable=4
PART-1-1.ND-AF, 0.00016
** Name: Field-13   Type: Field
*Initial Conditions, type=FIELD, variable=4
PART-1-1.ND-NP, 0.00016
** Name: IC-1   Type: Void ratio
*Initial Conditions, TYPE=RATIO
PART-1-1.ND-CEP, 4.
** Name: IC-2   Type: Void ratio
*Initial Conditions, TYPE=RATIO
PART-1-1.ND-AF, 3.
** Name: IC-3   Type: Void ratio
*Initial Conditions, TYPE=RATIO
PART-1-1.ND-NP, 4.
** Name: IC-4   Type: Void ratio
*Initial Conditions, TYPE=RATIO
PART-1-1.ND-BEP, 0.05
** ----------------------------------------------------------------
** 
** STEP: Swelling
** 
*Step, name=Swelling, nlgeom=YES, inc=1000
Free swelling
*Soils, consolidation, end=PERIOD, utol=5.
2000., 61200., 2000., 61200., 
** 
** CONTROLS
** 
*Controls, reset
*Controls, analysis=discontinuous
*Controls, parameters=line search
4, 4., 0.05, , 0.15
*Controls, parameters=field, field=displacement
0.075, 0.075, , , , , , 
*Controls, parameters=field, field=hydrostatic fluid pressure
0.075, 0.075, , , , , , 
*Controls, parameters=field, field=rotation
0.075, 0.075, , , , , , 
*Controls, parameters=field, field=pore fluid pressure
0.075, 0.075, , , , , , 
** 
** OUTPUT REQUESTS
** 
*Restart, write, frequency=0
** 
** FIELD OUTPUT: F-Output-1
** 
*Output, field
*Node Output
CF, POR, RF, U
** 
** FIELD OUTPUT: F-Output-2
** 
*Element Output, rebar, directions=YES
FLUVR, FLVEL, LE, RBANG, RBFOR, RBROT, S, VOIDR
** 
** FIELD OUTPUT: F-Output-3
** 
*Element Output, directions=YES
FLUVR, FLVEL, LE, S, SDV, VOIDR
** 
** HISTORY OUTPUT: H-Output-1
** 
*Output, history, variable=PRESELECT
*End Step
** ----------------------------------------------------------------
** 
** STEP: Carga_noche
** 
*Step, name=Carga_noche, nlgeom=YES, amplitude=RAMP, inc=1000
Load at rest time
*Soils, consolidation, end=PERIOD, utol=5.
2.5, 10., 0.0001, 10., 
** 
** LOADS
** 
** Name: SURFFORCE-1   Type: Pressure
*Dsload, op=NEW
SURF-1, P, 0.11
** 
** CONTROLS
** 
*Controls, reset
*Controls, analysis=discontinuous
*Controls, parameters=line search
4, 4., 0.05, , 0.15
*Controls, parameters=field, field=displacement
0.075, 0.075, , , , , , 
*Controls, parameters=field, field=hydrostatic fluid pressure
0.075, 0.075, , , , , , 
*Controls, parameters=field, field=rotation
0.075, 0.075, , , , , , 
*Controls, parameters=field, field=pore fluid pressure
0.075, 0.075, , , , , , 
** 
** OUTPUT REQUESTS
** 
*Restart, write, frequency=0
** 
** FIELD OUTPUT: F-Output-4
** 
*Output, field
*Node Output
CF, POR, RF, U
** 
** FIELD OUTPUT: F-Output-5
** 
*Element Output, rebar, directions=YES
FLUVR, FLVEL, LE, RBANG, RBFOR, RBROT, S, VOIDR
** 
** FIELD OUTPUT: F-Output-6
** 
*Element Output, directions=YES
FLUVR, FLVEL, LE, S, SDV, VOIDR
** 
** HISTORY OUTPUT: H-Output-2
** 
*Output, history, variable=PRESELECT
*End Step
** ----------------------------------------------------------------
** 
** STEP: Creep_noche
** 
*Step, name=Creep_noche, nlgeom=YES, inc=1000
*Soils, consolidation, end=PERIOD, utol=5.
5., 28790., 1., 28790., 
** 
** LOADS
** 
** Name: SURFFORCE-1   Type: Pressure
*Dsload, op=NEW
** Name: SURFFORCE-2   Type: Pressure
*Dsload, op=NEW, amplitude=AMP-1
SURF-1, P, 0.11
** 
** CONTROLS
** 
*Controls, reset
*Controls, analysis=discontinuous
*Controls, parameters=line search
4, 4., 0.05, , 0.15
*Controls, parameters=field, field=displacement
0.075, 0.075, , , , , , 
*Controls, parameters=field, field=hydrostatic fluid pressure
0.075, 0.075, , , , , , 
*Controls, parameters=field, field=rotation
0.075, 0.075, , , , , , 
*Controls, parameters=field, field=pore fluid pressure
0.075, 0.075, , , , , , 
** 
** OUTPUT REQUESTS
** 
*Restart, write, frequency=0
** 
** FIELD OUTPUT: F-Output-7
** 
*Output, field
*Node Output
CF, POR, RF, U
** 
** FIELD OUTPUT: F-Output-8
** 
*Element Output, directions=YES
FLUVR, FLVEL, LE, S, SDV, VOIDR
** 
** HISTORY OUTPUT: H-Output-3
** 
*Output, history, variable=PRESELECT
*End Step
** ----------------------------------------------------------------
** 
** STEP: Carga_dia
** 
*Step, name=Carga_dia, nlgeom=YES, amplitude=RAMP, inc=1000
*Soils, consolidation, end=PERIOD, utol=5.
0.1, 10., 0.0001, 10., 
** 
** LOADS
** 
** Name: SURFFORCE-2   Type: Pressure
*Dsload, op=NEW
** Name: SURFFORCE-3   Type: Pressure
*Dsload, op=NEW
SURF-1, P, 0.54
** 
** OUTPUT REQUESTS
** 
*Restart, write, frequency=0
** 
** FIELD OUTPUT: F-Output-9
** 
*Output, field
*Node Output
CF, POR, RF, U
** 
** FIELD OUTPUT: F-Output-10
** 
*Element Output, rebar, directions=YES
FLUVR, FLVEL, LE, RBANG, RBFOR, RBROT, S, VOIDR
** 
** FIELD OUTPUT: F-Output-11
** 
*Element Output, directions=YES
FLUVR, FLVEL, LE, S, SDV, VOIDR
** 
** HISTORY OUTPUT: H-Output-4
** 
*Output, history, variable=PRESELECT
*End Step
** ----------------------------------------------------------------
** 
** STEP: Creep_dia
** 
*Step, name=Creep_dia, nlgeom=YES, inc=1000
*Soils, consolidation, end=PERIOD, utol=5.
5., 57590., 0.001, 57590., 
** 
** LOADS
** 
** Name: SURFFORCE-3   Type: Pressure
*Dsload, op=NEW
** Name: SURFFORCE-4   Type: Pressure
*Dsload, op=NEW, amplitude=AMP-2
SURF-1, P, 0.54
** 
** OUTPUT REQUESTS
** 
*Restart, write, frequency=0
** 
** FIELD OUTPUT: F-Output-12
** 
*Output, field
*Node Output
CF, POR, RF, U
** 
** FIELD OUTPUT: F-Output-13
** 
*Element Output, rebar, directions=YES
FLUVR, FLVEL, LE, RBANG, RBFOR, RBROT, S, VOIDR
** 
** FIELD OUTPUT: F-Output-14
** 
*Element Output, directions=YES
FLUVR, FLVEL, LE, S, SDV, VOIDR
** 
** HISTORY OUTPUT: H-Output-5
** 
*Output, history, variable=PRESELECT
*End Step
